6
Written by ff_opt active learning
  O      1.0920000     -1.7840000     -1.5430000
  H      1.0570000     -2.5190001     -0.9300000
  H      1.1720001     -1.1530000     -2.2290001
  O     -0.6820000      1.1880000      0.4680000
  H     -0.8020000      2.1040001      0.5630000
  H     -0.7760000      0.2440000      0.5450000
