18
Converted from {nc}, frame {i}
  O     14.7943068     -0.3511132      3.4823263
  H     14.4455547      0.5163370      3.7272797
  H     15.1861629     -1.1490254      3.0183725
  O    -18.0381508     -2.9643471     -8.6243811
  H    -17.6203194     -3.0209658     -7.7481384
  H    -18.6255913     -3.1906059     -9.3412800
  O      0.1288712     -9.7990723     -1.7788661
  H      0.8995669    -10.3935251     -1.8845633
  H     -0.3896964     -9.0959244     -1.4018371
  O     -2.7984776      8.0854311      1.1391932
  H     -3.7107420      8.2342205      1.5443469
  H     -2.4915786      8.1357822      0.2043847
  O      8.9757929      9.5041380      1.8637838
  H      9.5953627      9.1460714      2.5366046
  H      8.5302334      9.6792212      0.9938523
  O     17.7037544     -5.2084517      8.7983322
  H     18.3980579     -4.7276092      9.2351685
  H     16.7800751     -5.3643456      8.5341616
