18
Converted from test.nc, frame 2
  O     16.7775288     -2.4746685      2.7076347
  H     16.4760551     -1.9056861      1.9785171
  H     16.9301205     -2.7921517      3.6644177
  O    -18.2824116     -3.6424115    -11.3006172
  H    -18.4607868     -3.0630836    -12.0605078
  H    -17.9183903     -4.3966122    -10.7989597
  O     -0.4917225    -10.4848251     -1.7073771
  H     -0.7215952    -11.3801594     -1.9662386
  H     -0.4411907     -9.4866362     -1.7569895
  O     -6.1422753      8.5364304     -7.0104580
  H     -5.5602522      9.2094793     -6.6107254
  H     -6.8400369      8.3204498     -7.6963596
  O      7.5427117     10.0583048      1.4110799
  H      7.6560450     10.6658554      0.6422607
  H      7.3527341      9.6041174      2.2490211
  O     18.2332516     -8.4909925     11.2553558
  H     18.2326183     -7.8570580     11.9543962
  H     18.2139969     -8.7378149     10.2838020
