18
Converted from test.nc, frame 6
  O     14.7256641     -1.8593094     -2.1318090
  H     15.6106873     -1.9743094     -2.5756123
  H     13.7753477     -1.7721950     -2.0391614
  O    -21.6971397     -3.7127492    -11.4809980
  H    -22.2145443     -4.5171189    -11.4015684
  H    -21.2837639     -2.8702857    -11.7875233
  O     -1.3302875    -14.2627583     -8.8217630
  H     -0.3472776    -14.3345919     -8.6874971
  H     -2.1514018    -14.7020779     -8.9502926
  O     -0.8904481      8.1524925     -9.0363159
  H      0.1033560      7.9863672     -8.9887390
  H     -1.8271598      8.0685053     -9.1978312
  O     10.3275862     13.2103157     -2.2523870
  H     10.6767702     13.9877739     -1.7815616
  H     10.4769964     12.4878883     -2.9471207
  O     21.9182472     -5.6006451     10.9336185
  H     21.9870110     -5.2209492      9.9973946
  H     21.6476593     -6.0434680     11.6814117
