18
Conf 6.
O          15.64168739    -7.29290533    -1.98191082
H          16.40782738    -7.87446594    -1.88477218
H          14.71858978    -6.97189379    -1.92573166
O         -23.73699379    -3.22678113   -11.39306927
H         -23.41006470    -2.36464143   -11.67043400
H         -23.79042053    -4.09856319   -10.99582005
O          -3.27645731   -11.37475872   -10.08916092
H          -3.66124082   -11.18629169   -10.96306610
H          -3.18594050   -11.63805199    -9.15621471
O          -0.68983650     4.80254126    -7.13121271
H          -0.47016507     5.67716408    -7.11378765
H          -0.89443398     4.08815098    -6.51636362
O          10.58827972    10.33340263    -1.26372468
H          11.04232788     9.94848251    -2.03567243
H          10.15758133    10.92374802    -0.65714163
O          23.13002205    -7.83055067    10.80661392
H          22.80986214    -8.65080261    10.30522156
H          23.56288528    -7.43019295    11.56432247
