81
Converted from 12345.nc, frame 0
  C     -0.4370000     -0.1230000     -0.0150000
  O      1.0077652     -0.2622864     -0.0027946
  H      1.3712344      0.6286108     -0.1458437
  O     -0.7981170      1.0339894     -0.2804895
  O     -1.0894142     -1.1459674      0.2554024
 Na      4.7672639      2.9893429      2.1476047
  O     -1.8611789     -1.3562747     -2.2688076
  H     -2.0484109     -1.6184181     -1.4580274
  H     -1.9963317     -2.0702689     -2.7515969
  O     -3.3701737     -1.4163637      3.0962808
  H     -2.5054550     -1.5293212      3.0709431
  H     -3.4632990     -0.5491158      3.1149440
  O      1.3275577      5.2178874     -1.6254106
  H      0.6373578      4.7908292     -1.3054343
  H      1.3428674      4.9828076     -2.4654360
  O      0.4099423      1.3611686      4.3411312
  H      0.7285702      0.6255497      4.6853414
  H      0.0692362      1.1012822      3.5811851
  O     -0.5445333      3.1493220     -1.7570798
  H     -1.3642573      3.3305471     -1.9944603
  H     -0.6331474      2.4722397     -1.2140821
  O      3.2819142      4.5227938      1.0199686
  H      2.5016649      4.7453208      1.3406432
  H      3.1451588      4.4791512      0.1594265
  O      1.8541611     -2.6247897      3.8586709
  H      2.0961225     -2.9754941      3.0973558
  H      2.5642805     -2.1900282      4.1191559
  O     -3.8685317     -0.8791652     -0.4665027
  H     -3.1574826     -0.6931953      0.0035656
  H     -3.9171982     -1.7494451     -0.4292999
  O     -2.9102681      4.4697514     -1.3875296
  H     -3.5345554      4.4236016     -0.7798495
  H     -2.3908424      5.1089582     -1.0998652
  O      1.1986210      2.8542871      0.4012284
  H      0.8065429      2.1140192      0.6449857
  H      1.2337301      2.7911544     -0.4682089
  O      0.0959039     -3.4019275     -4.7230306
  H     -0.3600149     -2.7128611     -4.4429140
  H      0.8986235     -3.2561781     -4.4139380
  O      2.5412469     -4.6893086     -1.0660636
  H      1.8977615     -5.1348400     -1.4515083
  H      2.5754838     -3.9447689     -1.5195262
  O      4.4955363      1.3894038      0.5557274
  H      4.2205095      0.5713755      0.4279409
  H      4.0614309      1.8481457     -0.0461432
  O      2.3918273     -2.8922288     -2.9838433
  H      2.9082050     -3.2586672     -3.5840237
  H      2.3692086     -2.0521238     -3.2180471
  O     -0.6179388     -1.2110072      3.4669693
  H      0.1603453     -1.5143166      3.7187963
  H     -0.8061992     -0.6060656      4.0667553
  O      0.0011356     -0.3900297     -3.8890386
  H     -0.5246844     -0.2667390     -3.2038727
  H     -0.2670425      0.2089953     -4.4638333
  O     -3.0987194     -3.7552364     -1.2410679
  H     -2.7037189     -3.7735066     -2.0187442
  H     -2.4601212     -3.9567485     -0.6818500
  O     -1.9423845      1.2480658     -4.9703407
  H     -2.2926910      0.4515668     -4.9069834
  H     -2.6167371      1.7509375     -5.2016587
  O     -4.0897951     -0.7520521     -3.4764380
  H     -4.2235575     -1.6130199     -3.5209527
  H     -3.6322377     -0.6533434     -2.7402060
  O      2.2098947      2.2748470     -2.1045504
  H      1.5135300      1.7614473     -2.2169621
  H      2.0658691      2.9386597     -2.6520438
  O     -2.8929358      1.7184799     -2.4276927
  H     -2.7396758      1.0927995     -1.8393263
  H     -2.7071025      1.3344219     -3.1886821
  O      0.3173046      2.8773184     -4.4805875
  H     -0.4951445      2.6522584     -4.2560573
  H      0.4807995      2.3835261     -5.1810002
  O      2.5383670     -0.6440814     -4.4254646
  H      2.9948335     -0.1133118     -3.9048288
  H      1.7098342     -0.4902509     -4.1996131
  O     -1.6268569      4.1588473      1.4797231
  H     -1.0238372      4.1095004      0.8511759
  H     -2.3650277      3.9314225      1.0741107
  O     -2.3793213      1.5524213      4.3801904
  H     -1.7381613      1.3726153      4.9438601
  H     -2.0911672      2.2612326      3.9610324
