81
Converted from 12345.nc, frame 1
  C     -0.4370000     -0.1230000     -0.0150000
  O      1.0048372     -0.2611821      0.0032981
  H      1.3485073      0.5737906     -0.3583640
  O     -0.7810597      1.0112308     -0.2798974
  O     -1.0985092     -1.1356834      0.2492627
 Na      4.7413192      2.9977546      2.1381679
  O     -1.8288474     -1.3601924     -2.2910874
  H     -1.6678110     -1.4881046     -1.4432399
  H     -2.0003622     -2.1614957     -2.5904791
  O     -3.3734212     -1.4163421      3.1051612
  H     -2.5468524     -1.5449761      2.8574178
  H     -3.4512548     -0.5474646      3.1167054
  O      1.3386623      5.2139730     -1.6254811
  H      0.6859757      4.6854324     -1.3892945
  H      1.2438902      5.2832894     -2.4899769
  O      0.4200992      1.3565710      4.3441801
  H      0.8464547      0.6506266      4.6287909
  H      0.2098713      1.1518694      3.5225716
  O     -0.5651203      3.1473858     -1.7385722
  H     -1.3518095      3.3888917     -2.0282869
  H     -0.7278706      2.4198873     -1.2853638
  O      3.3201106      4.5347409      1.0271834
  H      2.5450454      4.5611887      1.4268258
  H      3.1152432      4.5685687      0.1798200
  O      1.8600240     -2.5987911      3.8655772
  H      1.9190220     -3.0062809      3.0964148
  H      2.6886513     -2.4078257      4.0606375
  O     -3.8480985     -0.8886029     -0.4541217
  H     -3.2953858     -0.7513191      0.2067877
  H     -4.2474890     -1.6330256     -0.2362655
  O     -2.9112618      4.5010104     -1.3843377
  H     -3.6445785      4.3798251     -0.9275006
  H     -2.5308561      5.1775761     -0.9859784
  O      1.2070971      2.8272836      0.4426791
  H      0.3943677      2.5241902      0.5361928
  H      1.3033533      2.8928671     -0.4219439
  O      0.0885293     -3.3861380     -4.7052484
  H     -0.2017920     -2.5695050     -4.6054301
  H      0.8422166     -3.3910491     -4.2658501
  O      2.5484600     -4.7088771     -1.0440680
  H      1.8781580     -5.2083163     -1.2938583
  H      2.4580128     -3.9877648     -1.5267227
  O      4.4700732      1.3999571      0.5423461
  H      4.3790288      0.5325104      0.5226807
  H      4.0617743      1.6655294     -0.1814652
  O      2.3976433     -2.8870914     -3.0112987
  H      3.0046918     -3.3084671     -3.4750595
  H      2.3774142     -2.0934315     -3.3730085
  O     -0.6122395     -1.1945186      3.4661214
  H     -0.0471129     -1.8294835      3.6625671
  H     -0.8191198     -0.8563586      4.2432880
  O      0.0155311     -0.3620837     -3.9004962
  H     -0.4749590     -0.6983366     -3.2621446
  H     -0.5092933      0.2261323     -4.2742620
  O     -3.0938382     -3.7469897     -1.2457821
  H     -2.7039592     -4.1930680     -1.8862100
  H     -2.5645139     -3.8644407     -0.5622906
  O     -1.9583108      1.2214345     -4.9818678
  H     -2.4120052      0.4767805     -5.0099983
  H     -2.5757539      1.8377807     -4.9773140
  O     -4.1098890     -0.7552585     -3.5287056
  H     -4.5847883     -1.4871103     -3.5304646
  H     -3.9047046     -0.6458904     -2.6878266
  O      2.2141943      2.2503767     -2.1138315
  H      1.5441525      1.7263650     -2.3077264
  H      2.1226149      2.9152503     -2.6712325
  O     -2.9054840      1.7211336     -2.4137132
  H     -2.6918490      1.1694577     -1.7725008
  H     -2.6738260      1.2934361     -3.1379707
  O      0.3508725      2.8827302     -4.4912071
  H     -0.4407527      2.6769519     -4.1876874
  H      0.3993712      2.4504108     -5.2474399
  O      2.5773251     -0.6308453     -4.4156876
  H      2.9083180      0.0589756     -3.9964857
  H      1.7248989     -0.4516049     -4.4644928
  O     -1.6261194      4.1747270      1.4662679
  H     -0.9386479      3.8255637      1.0580924
  H     -2.2952421      3.6832814      1.1981337
  O     -2.3790932      1.5470357      4.3753619
  H     -1.7837464      1.6326518      5.0073204
  H     -2.2811434      2.2730138      3.9015465
