83
Conf 3.
C          -0.43700001    -0.12300000    -0.01500000
O           0.97949493    -0.28411067    -0.00531332
H           1.31312346     0.54834664    -0.34776559
O          -0.80879420     1.06713903    -0.30300859
O          -1.12358046    -1.14166307     0.23445010
Na          4.65838909     3.01578188     2.09535241
O          -1.66719794    -1.44483197    -2.32290745
H          -1.45139432    -1.01503503    -1.59500444
H          -2.36100483    -1.91690552    -2.08433247
O          -3.38290453    -1.40904963     3.08506560
H          -2.58492613    -1.46423185     2.73674846
H          -3.39855766    -0.61069047     3.43651581
O           1.35956860     5.18313313    -1.63042629
H           0.78889191     4.52334118    -1.61848247
H           1.08457220     5.68024158    -2.29254389
O           0.50665677     1.36328793     4.34437418
H           0.96940500     0.66002643     4.57334328
H           0.07350269     1.10139275     3.63379121
O          -0.60423380     3.15706587    -1.72238135
H          -1.37019694     3.55546284    -1.59700191
H          -0.74621737     2.34501076    -1.43681800
O           3.39828372     4.55508852     1.06377089
H           2.64863849     4.15596104     1.26344252
H           3.23697853     4.91777611     0.28686813
O           1.89530456    -2.56314087     3.87432981
H           1.55546069    -2.88732028     3.13910627
H           2.68086720    -2.93980956     3.92071271
O          -3.88071871    -0.87662226    -0.37896648
H          -3.18142772    -1.08399463     0.09970673
H          -4.52396250    -1.33895636    -0.01342027
O          -2.92777228     4.61548901    -1.37807393
H          -3.64415145     4.11845493    -1.34811747
H          -2.81940269     4.86923790    -0.55042243
O           1.16597831     2.79883099     0.54143947
H           0.43323684     2.55396819     0.13613509
H           1.75717032     2.82186794    -0.09973198
O           0.07235310    -3.33361983    -4.64937830
H           0.29662082    -2.55832362    -4.98067760
H           0.58830047    -3.41509247    -3.95059347
O           2.56154799    -4.76045656    -0.98571837
H           1.85272920    -5.26380682    -0.91254616
H           2.28490448    -4.08476496    -1.46326256
O           4.42978287     1.40020549     0.49373668
H           4.55243158     0.55826867     0.68671143
H           3.92247200     1.37627387    -0.21563122
O           2.40814543    -2.90010071    -3.09363556
H           3.17223144    -3.31551743    -3.16249132
H           2.55222058    -2.13806391    -3.49323726
O          -0.58415240    -1.18620396     3.50516582
H          -0.33806556    -1.99696922     3.29722261
H          -1.15214217    -1.30495965     4.15664434
O           0.02081298    -0.31284356    -3.93214440
H          -0.24290153    -1.02284372    -3.49913859
H          -0.71158153     0.15071394    -4.03140259
O          -3.05760336    -3.79278564    -1.27978754
H          -3.01958752    -4.64305258    -1.08810890
H          -2.83528805    -3.40362787    -0.53127456
O          -2.02703667     1.16403949    -5.00503731
H          -2.70292974     0.62463427    -5.12058020
H          -2.37648201     1.84345865    -4.58382845
O          -4.21404934    -0.75526357    -3.64116502
H          -4.99377108    -1.12679803    -3.51813889
H          -3.93937182    -0.58191055    -2.83144855
O           2.24622893     2.17765284    -2.15084672
H           1.55297840     1.71310663    -2.40528750
H           2.16122842     2.92853951    -2.58683276
O          -2.93009901     1.69510686    -2.37468433
H          -2.72818804     1.43415022    -1.56705022
H          -2.72027183     1.00863624    -2.87053728
O           0.44685683     2.90457845    -4.52786255
H          -0.10039387     2.77101326    -3.86166716
H           0.08715633     2.45362878    -5.18238497
O           2.69147086    -0.55863553    -4.42840815
H           2.83708906     0.27140713    -4.20265627
H           1.82804775    -0.58982891    -4.54951620
O          -1.62478292     4.15696812     1.42578983
H          -0.82944971     3.87686968     1.64968610
H          -2.11115885     3.43304873     1.44856811
O          -2.41465211     1.55902815     4.37378740
H          -1.67642677     1.86968672     4.71969795
H          -2.65918136     2.18433189     3.81670547
