81
Converted from 12345.nc, frame 3
  C     -0.4370000     -0.1230000     -0.0150000
  O      0.9750844     -0.2878003     -0.0080145
  H      1.3252547      0.5555585     -0.3130497
  O     -0.8129876      1.0645463     -0.3049390
  O     -1.1262628     -1.1399010      0.2331686
 Na      4.6479588      3.0178523      2.0891373
  O     -1.6521797     -1.4592154     -2.3217897
  H     -1.4382255     -0.9957219     -1.6143035
  H     -2.3818517     -1.8734206     -2.0827243
  O     -3.3833196     -1.4059032      3.0809591
  H     -2.5843675     -1.4423308      2.7324076
  H     -3.3955307     -0.6331048      3.4856479
  O      1.3624852      5.1770439     -1.6309428
  H      0.7918700      4.5170970     -1.6281306
  H      1.0662946      5.7016292     -2.2619905
  O      0.5205834      1.3663183      4.3420568
  H      0.9641552      0.6556456      4.5856299
  H      0.0336238      1.0855242      3.6748505
  O     -0.6079809      3.1619925     -1.7248003
  H     -1.3534181      3.5769932     -1.5424892
  H     -0.7426850      2.3553355     -1.4209930
  O      3.4032736      4.5554185      1.0678127
  H      2.6512160      4.1371679      1.2113924
  H      3.2663007      4.9703741      0.3127036
  O      1.9020909     -2.5616310      3.8744779
  H      1.5332171     -2.8546398      3.1401637
  H      2.6587272     -2.9944377      3.9108043
  O     -3.8864870     -0.8719124     -0.3697610
  H     -3.1665580     -1.1246922      0.0532569
  H     -4.5245609     -1.3130214      0.0295183
  O     -2.9311171      4.6322746     -1.3745319
  H     -3.6079893      4.0830808     -1.4115381
  H     -2.8437874      4.7930260     -0.5214949
  O      1.1622596      2.8001888      0.5510799
  H      0.4679943      2.5024676      0.1146198
  H      1.7986556      2.7920558     -0.0456391
  O      0.0708315     -3.3261518     -4.6428547
  H      0.3409119     -2.5847511     -5.0150390
  H      0.5683904     -3.3904862     -3.9291070
  O      2.5626349     -4.7659378     -0.9783261
  H      1.8520197     -5.2607517     -0.8719084
  H      2.2742665     -4.0918097     -1.4511203
  O      4.4259953      1.3989643      0.4879446
  H      4.5583110      0.5608643      0.6909729
  H      3.9048049      1.3609769     -0.2106664
  O      2.4106486     -2.9028707     -3.1034503
  H      3.1794152     -3.3145568     -3.1289744
  H      2.5765057     -2.1349311     -3.4827914
  O     -0.5844015     -1.1855104      3.5107539
  H     -0.3396130     -1.9845952      3.2603912
  H     -1.1850508     -1.3379570      4.1248546
  O      0.0255696     -0.3078239     -3.9381545
  H     -0.2438635     -1.0113119     -3.4980977
  H     -0.7078777      0.1465541     -4.0675192
  O     -3.0526946     -3.8015199     -1.2813606
  H     -3.0639729     -4.6276913     -1.0012650
  H     -2.8606811     -3.3441963     -0.5636382
  O     -2.0372484      1.1599349     -5.0067997
  H     -2.7264411      0.6359485     -5.1144614
  H     -2.3608716      1.8351239     -4.5589967
  O     -4.2275743     -0.7509915     -3.6535275
  H     -5.0124965     -1.0999974     -3.5011096
  H     -3.9148502     -0.5926352     -2.8546116
  O      2.2512443      2.1696126     -2.1543751
  H      1.5583705      1.7096050     -2.4179244
  H      2.1666760      2.9281564     -2.5769849
  O     -2.9330697      1.6892604     -2.3693764
  H     -2.7422266      1.4700413     -1.5467820
  H     -2.7404220      0.9696223     -2.8234107
  O      0.4582282      2.9077652     -4.5320940
  H     -0.0396614      2.8042793     -3.8231959
  H      0.0443436      2.4425249     -5.1431508
  O      2.7057159     -0.5474656     -4.4327621
  H      2.8482952      0.2865564     -4.2201171
  H      1.8392097     -0.5904627     -4.5247273
  O     -1.6242667      4.1530638      1.4229097
  H     -0.8317539      3.9188180      1.7025377
  H     -2.0804868      3.4100511      1.4534878
  O     -2.4207780      1.5619084      4.3736939
  H     -1.6534189      1.8653421      4.6569386
  H     -2.6948342      2.1799297      3.8222573
