81
Converted from 12345.nc, frame 3
  C     -0.4370000     -0.1230000     -0.0150000
  O      0.9750572     -0.2878351     -0.0079767
  H      1.3252534      0.5556316     -0.3130119
  O     -0.8129283      1.0642307     -0.3048397
  O     -1.1262168     -1.1398406      0.2331283
 Na      4.6479197      3.0178750      2.0891373
  O     -1.6521574     -1.4592078     -2.3218205
  H     -1.4381140     -0.9958550     -1.6142691
  H     -2.3818805     -1.8733464     -2.0827956
  O     -3.3833172     -1.4059016      3.0809956
  H     -2.5843732     -1.4422668      2.7324188
  H     -3.3955886     -0.6330885      3.4856544
  O      1.3624992      5.1770272     -1.6309339
  H      0.7918730      4.5170898     -1.6281325
  H      1.0663782      5.7015748     -2.2620454
  O      0.5205848      1.3663225      4.3420601
  H      0.9641979      0.6556856      4.5856628
  H      0.0335492      1.0854422      3.6749456
  O     -0.6079710      3.1620278     -1.7247854
  H     -1.3534238      3.5770278     -1.5425367
  H     -0.7426783      2.3553865     -1.4209380
  O      3.4032779      4.5554590      1.0677937
  H      2.6511855      4.1372685      1.2113671
  H      3.2663431      4.9704289      0.3126857
  O      1.9020784     -2.5615990      3.8744731
  H      1.5332627     -2.8546317      3.1401391
  H      2.6587386     -2.9943600      3.9108422
  O     -3.8864584     -0.8718665     -0.3698007
  H     -3.1664541     -1.1246459      0.0530892
  H     -4.5243998     -1.3133762      0.0292480
  O     -2.9311101      4.6322966     -1.3745410
  H     -3.6079531      4.0830679     -1.4115694
  H     -2.8438010      4.7930331     -0.5214992
  O      1.1622785      2.8001525      0.5510653
  H      0.4680254      2.5023806      0.1146206
  H      1.7986702      2.7920337     -0.0456585
  O      0.0708271     -3.3261445     -4.6428461
  H      0.3408961     -2.5847430     -5.0150371
  H      0.5683724     -3.3904536     -3.9290867
  O      2.5626385     -4.7659216     -0.9783393
  H      1.8520169     -5.2607307     -0.8719438
  H      2.2742882     -4.0917907     -1.4511409
  O      4.4259677      1.3989697      0.4879407
  H      4.5582037      0.5608603      0.6909823
  H      3.9047620      1.3610209     -0.2106610
  O      2.4106479     -2.9028962     -3.1034350
  H      3.1793921     -3.3146226     -3.1289947
  H      2.5765278     -2.1349652     -3.4827838
  O     -0.5844053     -1.1854792      3.5107372
  H     -0.3394913     -1.9845232      3.2603667
  H     -1.1850805     -1.3380259      4.1247878
  O      0.0256039     -0.3077966     -3.9381492
  H     -0.2438772     -1.0112419     -3.4980536
  H     -0.7078199      0.1465998     -4.0675826
  O     -3.0526996     -3.8014839     -1.2813537
  H     -3.0639956     -4.6276684     -1.0012980
  H     -2.8605728     -3.3442078     -0.5636312
  O     -2.0372477      1.1599214     -5.0067844
  H     -2.7264507      0.6359431     -5.1144204
  H     -2.3608642      1.8351518     -4.5590391
  O     -4.2275348     -0.7509770     -3.6535754
  H     -5.0124135     -1.1000720     -3.5011365
  H     -3.9148545     -0.5924803     -2.8546703
  O      2.2512438      2.1696043     -2.1543779
  H      1.5583969      1.7095528     -2.4179218
  H      2.1666353      2.9281349     -2.5770035
  O     -2.9330876      1.6892580     -2.3693819
  H     -2.7421451      1.4700935     -1.5467962
  H     -2.7402976      0.9696597     -2.8234191
  O      0.4582330      2.9077687     -4.5320821
  H     -0.0396440      2.8043044     -3.8231723
  H      0.0443571      2.4424801     -5.1431084
  O      2.7057469     -0.5474600     -4.4327517
  H      2.8483877      0.2865573     -4.2201290
  H      1.8392346     -0.5904026     -4.5246859
  O     -1.6242748      4.1531138      1.4229070
  H     -0.8316900      3.9188561      1.7023207
  H     -2.0804667      3.4100845      1.4535006
  O     -2.4207706      1.5618974      4.3736720
  H     -1.6533494      1.8652506      4.6568346
  H     -2.6948013      2.1799281      3.8222330
