81
Converted from 12345.nc, frame 4
  C     -0.4370000     -0.1230000     -0.0150000
  O      0.9605010     -0.3060074     -0.0222836
  H      1.3573025      0.5616291     -0.1073260
  O     -0.8227243      1.0185937     -0.3108184
  O     -1.1406387     -1.1220152      0.2329204
 Na      4.5955377      3.0220604      2.0592520
  O     -1.5967416     -1.5230807     -2.3245606
  H     -1.3879830     -1.1322839     -1.5730041
  H     -2.3831985     -1.8658397     -2.1660011
  O     -3.3832650     -1.3878323      3.0626760
  H     -2.6209488     -1.2551965      2.6596606
  H     -3.4013247     -0.7681459      3.6765180
  O      1.3774298      5.1373711     -1.6347524
  H      0.7895928      4.4966955     -1.5631816
  H      0.9579167      5.7505255     -2.0921247
  O      0.5839567      1.3746780      4.3215752
  H      0.9518217      0.6947794      4.7259917
  H     -0.0839402      1.0184917      3.8877726
  O     -0.6197902      3.1929877     -1.7421792
  H     -1.2381912      3.7282140     -1.4384484
  H     -0.7676545      2.4460793     -1.3162643
  O      3.4039865      4.5510483      1.0756927
  H      2.6138256      4.1934805      0.9811906
  H      3.4163702      5.1830883      0.4744348
  O      1.9428004     -2.5633967      3.8736589
  H      1.5177289     -2.6525009      3.1170120
  H      2.4959433     -3.2380412      3.8788800
  O     -3.9151824     -0.8547469     -0.3308496
  H     -3.1264219     -1.1563133     -0.1116364
  H     -4.4319282     -1.1487427      0.3076483
  O     -2.9570744      4.7068772     -1.3429511
  H     -3.2847397      4.0144515     -1.7604697
  H     -2.9460614      4.4562759     -0.5073570
  O      1.1605251      2.8033447      0.5973767
  H      0.5532097      2.3191028      0.2001145
  H      1.8790541      2.6604121      0.1236407
  O      0.0601531     -3.2876568     -4.6123509
  H      0.4962682     -2.7542424     -5.1475263
  H      0.5216566     -3.2582498     -3.8725610
  O      2.5637577     -4.7920723     -0.9387738
  H      1.8592658     -5.2430568     -0.6908950
  H      2.2315655     -4.1283722     -1.3973471
  O      4.4008551      1.3872913      0.4618671
  H      4.5734191      0.5550559      0.6587061
  H      3.8726947      1.3291547     -0.2300911
  O      2.4280915     -2.9176877     -3.1451707
  H      3.1846130     -3.3299940     -3.0079906
  H      2.6723993     -2.1307282     -3.4317858
  O     -0.6027055     -1.1792110      3.5386207
  H     -0.3252791     -1.8711550      3.0854235
  H     -1.2840829     -1.4878473      3.9876287
  O      0.0600489     -0.2791034     -3.9725249
  H     -0.3444746     -0.8866605     -3.4946392
  H     -0.5901453      0.1041732     -4.4101162
  O     -3.0369291     -3.8495631     -1.2738404
  H     -3.2660248     -4.4448819     -0.6786511
  H     -2.9228191     -3.1232677     -0.8041457
  O     -2.0938518      1.1460160     -5.0135593
  H     -2.7998865      0.6342104     -5.0401945
  H     -2.3119993      1.7668064     -4.4406977
  O     -4.2944050     -0.7214366     -3.7082188
  H     -5.0672903     -0.9969530     -3.4117756
  H     -3.7944186     -0.7053993     -2.9934490
  O      2.2759347      2.1266730     -2.1644456
  H      1.6231172      1.6726412     -2.5233660
  H      2.2147346      2.9094658     -2.5447474
  O     -2.9568586      1.6530894     -2.3360138
  H     -2.7941606      1.6130780     -1.4798199
  H     -2.8312528      0.8334448     -2.6072061
  O      0.5077278      2.9188232     -4.5465226
  H      0.2454228      3.0517468     -3.7251413
  H     -0.1180984      2.4121039     -4.8822551
  O      2.7726474     -0.4885548     -4.4553070
  H      2.9665761      0.3507253     -4.3169589
  H      1.9042341     -0.5142503     -4.3756986
  O     -1.6292553      4.1288314      1.4140439
  H     -0.8672819      4.1539907      1.8381938
  H     -1.8492510      3.2849143      1.4373873
  O     -2.4517248      1.5730224      4.3695960
  H     -1.6165308      1.8251077      4.3762026
  H     -2.8499937      2.1947939      3.9049227
