83
Conf 5.
C          -0.43700001    -0.12300000    -0.01500000
O           0.96650749    -0.33314800    -0.02604110
H           1.34678292     0.55749488     0.04145364
O          -0.81594503     1.00823629    -0.31486225
O          -1.16681111    -1.10230732     0.24061711
Na          4.53418159     3.00279856     2.03017807
O          -1.57614577    -1.58223367    -2.32767916
H          -1.29947853    -1.76767480    -1.52132535
H          -1.96463680    -2.31949139    -2.58587527
O          -3.37344265    -1.36088395     3.03900719
H          -2.81896114    -0.90208381     2.54586172
H          -3.47104979    -0.86707085     3.75158072
O           1.39461994     5.06991005    -1.63398933
H           0.88925260     4.41685057    -1.35246432
H           0.82291490     5.68908024    -1.85964644
O           0.64068609     1.36927390     4.29437113
H           1.05246246     0.96028954     4.94576311
H           0.13611497     0.74743074     3.94816494
O          -0.61113918     3.25772119    -1.77066433
H          -1.16687727     3.87277269    -1.49862337
H          -0.85484624     2.54900384    -1.32404780
O           3.34388089     4.55561686     1.05235815
H           2.50164390     4.40408278     0.88261217
H           3.52714944     5.25880480     0.56957519
O           2.01182342    -2.58221936     3.87105393
H           1.76058757    -2.37010431     3.06295276
H           2.16774416    -3.43903470     3.81913710
O          -3.93272161    -0.86625808    -0.27228996
H          -3.08901000    -0.66687399    -0.17463619
H          -4.25884247    -0.77776885     0.53204477
O          -2.98540807     4.76613283    -1.30303478
H          -2.84667563     4.22542191    -1.97350085
H          -3.13124800     4.22781420    -0.63215208
O           1.19564152     2.78657269     0.66237313
H           0.44611102     2.35438395     0.55031735
H           1.67301023     2.55207872    -0.02919842
O           0.04238343    -3.23807192    -4.57783175
H           0.54590219    -2.91141558    -5.21100140
H           0.53661662    -3.16203165    -3.86292529
O           2.55887651    -4.81663370    -0.88144517
H           1.88713109    -5.24935532    -0.53123081
H           2.17578721    -4.20050478    -1.36597264
O           4.35353279     1.35865068     0.43152317
H           4.56920767     0.51705879     0.51119089
H           4.00898170     1.40726578    -0.36851490
O           2.46233320    -2.93620801    -3.17053294
H           3.20269322    -3.37420368    -3.02504516
H           2.73514867    -2.17611527    -3.50063968
O          -0.65092903    -1.16403580     3.57255507
H          -0.39337623    -1.54664350     2.83200288
H          -1.29011035    -1.68345988     3.86027932
O           0.11957619    -0.22539310    -4.03342485
H          -0.48537633    -0.65520698    -3.57469630
H          -0.28913561    -0.02934120    -4.77884960
O          -3.03540921    -3.90563703    -1.23453164
H          -3.47354794    -4.19538927    -0.53795600
H          -2.90190029    -3.06204724    -1.05656803
O          -2.17590165     1.14135420    -5.01369524
H          -2.78538656     0.51844543    -4.97304535
H          -2.29002213     1.58862782    -4.27338314
O          -4.36211014    -0.67395192    -3.75849056
H          -5.04987526    -0.82932222    -3.24470234
H          -3.69026518    -0.99671257    -3.30507040
O           2.31175089     2.06384540    -2.15950251
H           1.77565551     1.61154008    -2.67830992
H           2.32152057     2.85915351    -2.51801205
O          -3.00355220     1.61049569    -2.27259207
H          -2.79244065     1.64122367    -1.42664456
H          -2.89486384     0.77025914    -2.48074794
O           0.56024337     2.92940044    -4.53908587
H           0.41216362     3.40694571    -3.82412958
H          -0.14777668     2.42304420    -4.59782743
O           2.85141230    -0.40825975    -4.47011042
H           3.17179346     0.40199485    -4.51464081
H           2.00487328    -0.28499305    -4.29888916
O          -1.64925313     4.07348442     1.41180098
H          -0.95869672     4.48936749     1.74543679
H          -1.38475859     3.24357700     1.36244667
O          -2.49262047     1.57938576     4.34698200
H          -1.69185233     1.91846895     4.27675056
H          -3.01611733     2.24331474     4.13183403
