81
Converted from 12345.nc, frame 5
  C     -0.4370000     -0.1230000     -0.0150000
  O      0.9634767     -0.3262693     -0.0276215
  H      1.3403853      0.5521099      0.0291733
  O     -0.8182426      0.9982113     -0.3145028
  O     -1.1606265     -1.1049329      0.2378542
 Na      4.5479212      3.0107331      2.0358450
  O     -1.5724496     -1.5653086     -2.3305299
  H     -1.3409727     -1.6320058     -1.4920138
  H     -2.1475317     -2.2127252     -2.4366996
  O     -3.3758280     -1.3677375      3.0452292
  H     -2.7666020     -0.9730541      2.5612786
  H     -3.4464071     -0.8529214      3.7460306
  O      1.3907164      5.0867815     -1.6359982
  H      0.8515484      4.4466562     -1.3896710
  H      0.8512945      5.7146983     -1.9114683
  O      0.6299956      1.3725528      4.3003139
  H      1.0257399      0.8810144      4.9027390
  H      0.0449841      0.8310870      3.9457495
  O     -0.6143552      3.2401767     -1.7637725
  H     -1.1702859      3.8558981     -1.4936478
  H     -0.8440679      2.5383260     -1.2992539
  O      3.3626416      4.5524783      1.0597816
  H      2.5263150      4.3699789      0.8912839
  H      3.5196376      5.2608857      0.5753739
  O      1.9942927     -2.5760610      3.8715808
  H      1.6833926     -2.4300475      3.0696077
  H      2.2554002     -3.4079804      3.8420439
  O     -3.9332662     -0.8609341     -0.2900062
  H     -3.0757184     -0.8008387     -0.1412114
  H     -4.2803402     -0.8679877      0.5103871
  O     -2.9816127      4.7555046     -1.3105502
  H     -2.9068160      4.1700988     -1.9530804
  H     -3.0814095      4.2645330     -0.5963185
  O      1.1853801      2.7937129      0.6479142
  H      0.4736381      2.3236353      0.4646386
  H      1.7507570      2.5610411      0.0255377
  O      0.0469616     -3.2484109     -4.5855784
  H      0.5465304     -2.8894279     -5.2042074
  H      0.5309137     -3.1757655     -3.8633230
  O      2.5605316     -4.8113470     -0.8951355
  H      1.8804939     -5.2437506     -0.5608971
  H      2.1892610     -4.1805482     -1.3698887
  O      4.3653708      1.3672273      0.4391519
  H      4.5753760      0.5278856      0.5511471
  H      3.9653339      1.3769108     -0.3361004
  O      2.4535117     -2.9313927     -3.1674452
  H      3.1935692     -3.3637617     -3.0046215
  H      2.7285204     -2.1608670     -3.4704299
  O     -0.6393757     -1.1670979      3.5656445
  H     -0.3578219     -1.6414882      2.8897591
  H     -1.2932001     -1.6434284      3.8923893
  O      0.1039413     -0.2389226     -4.0176563
  H     -0.4705346     -0.7041210     -3.5542908
  H     -0.3494937      0.0037846     -4.7223759
  O     -3.0348210     -3.8938057     -1.2458949
  H     -3.4276767     -4.2363682     -0.5462843
  H     -2.8978696     -3.0628905     -1.0179396
  O     -2.1559148      1.1422018     -5.0150681
  H     -2.7934217      0.5480650     -4.9735236
  H     -2.2902088      1.6368771     -4.3090925
  O     -4.3496590     -0.6841969     -3.7489328
  H     -5.0698209     -0.8827019     -3.2982645
  H     -3.7017093     -0.9123312     -3.2111082
  O      2.3026302      2.0794778     -2.1620231
  H      1.7418579      1.6250253     -2.6520708
  H      2.2960584      2.8727906     -2.5249987
  O     -2.9924438      1.6197227     -2.2888212
  H     -2.7977343      1.6505206     -1.4389513
  H     -2.8711801      0.7811626     -2.4967914
  O      0.5485312      2.9271328     -4.5430832
  H      0.3959740      3.3354361     -3.7873356
  H     -0.1554077      2.4228771     -4.6495523
  O      2.8335030     -0.4263552     -4.4685855
  H      3.1291683      0.3944238     -4.4620056
  H      1.9823171     -0.3391417     -4.2982454
  O     -1.6446446      4.0898900      1.4114789
  H     -0.9254134      4.4110093      1.7866168
  H     -1.4937841      3.2311668      1.3802547
  O     -2.4824805      1.5786657      4.3539743
  H     -1.6707116      1.8880999      4.2738423
  H     -2.9814119      2.2357690      4.0703859
