81
Converted from 12345.nc, frame 5
  C     -0.4370000     -0.1230000     -0.0150000
  O      0.9512640     -0.0207963     -0.2354183
  H      1.1264801      0.9136876     -0.1305043
  O     -0.9483475      0.8424122     -0.5780076
  O     -0.7748756     -1.1037190      0.6517867
 Na      4.8666439      2.9379325      2.2956707
  O     -2.3851204     -2.3627133     -2.1046414
  H     -1.5154263     -2.3608651     -2.0355897
  H     -2.6558845     -2.4762146     -1.2830917
  O     -3.4238081     -1.3279868      2.8670068
  H     -2.6963387     -1.6075176      2.4748459
  H     -3.1622298     -1.1465939      3.6792953
  O      1.3722769      5.3547630     -1.7290865
  H      1.3349463      4.4867182     -1.6500684
  H      0.6452143      5.6283441     -1.3320060
  O      1.3751944      1.1773139      4.2626123
  H      1.2247469      0.3182424      4.2402258
  H      0.6184701      1.5249368      4.0024858
  O     -0.6164597      3.1123309     -1.9544287
  H     -0.7146173      3.1558466     -1.0886279
  H     -0.7462988      2.2683885     -2.1334331
  O      2.9356802      5.3316064      0.7763720
  H      2.2274609      4.8596110      0.5845777
  H      2.6866136      6.1513705      0.6117743
  O      2.0350773     -2.6737187      3.8675227
  H      1.4829376     -2.0009813      3.8066471
  H      1.6137079     -3.3221240      3.4635949
  O     -3.9380062     -1.1268536      0.3047169
  H     -3.1039674     -1.1265028      0.5606831
  H     -4.2380452     -0.3560416      0.5821424
  O     -3.5342226      4.8385706     -1.4815159
  H     -2.9413309      4.4034176     -1.9508352
  H     -3.6292129      4.3486309     -0.7659216
  O      1.4385667      2.7612913      0.7148353
  H      0.7386495      3.2338994      0.9336895
  H      1.2275114      2.4309874     -0.0645841
  O     -0.4553564     -3.5440302     -4.5696507
  H     -0.4292486     -2.6823087     -4.7034202
  H     -1.0722610     -3.8187635     -5.1220002
  O      2.4959891     -5.2565570     -0.3862511
  H      2.0005472     -4.8327818      0.1934829
  H      2.9976537     -4.6284733     -0.7253424
  O      4.5163074      0.8727269      0.0772726
  H      4.6833048      0.0233549     -0.0314414
  H      3.6550419      0.9303042     -0.0494009
  O      2.8528237     -3.0300939     -3.0425255
  H      3.6405830     -3.2859368     -2.7684464
  H      2.4830894     -3.7690246     -3.3225572
  O     -0.5540752     -1.3163037      3.6310465
  H     -0.9449152     -1.3102015      2.8510809
  H     -1.2133232     -1.2058924      4.1917076
  O      0.2901894     -0.2175033     -4.0296288
  H      0.6569607      0.2188190     -4.6901145
  H      0.8793948     -0.8314133     -3.8370383
  O     -3.7221229     -4.7841415     -0.5268163
  H     -2.9235842     -4.6977835     -0.8674303
  H     -4.0404572     -3.9719973     -0.5418040
  O     -3.7581758      1.6903120     -5.7739549
  H     -3.0520582      1.2573800     -6.0480118
  H     -3.4352684      2.2751777     -5.2128825
  O     -4.6208987     -1.5909690     -4.0808115
  H     -5.2379613     -1.4789147     -3.4743323
  H     -3.8802090     -1.6034073     -3.6199825
  O      2.2827866      2.0849748     -2.0895982
  H      2.1851323      1.2403978     -2.2852836
  H      2.4747498      2.4525230     -2.8571904
  O     -3.1655562      2.3048573     -2.0538747
  H     -3.1019766      1.4404025     -1.9548042
  H     -2.5595093      2.4876506     -2.6542356
  O      1.2786473      3.3720639     -4.5961423
  H      1.2675709      4.2309475     -4.4433813
  H      0.5031687      3.1013851     -4.3020244
  O      3.9885283      0.1477443     -5.1716866
  H      3.8718877     -0.7098085     -5.2818575
  H      4.4441385      0.1991072     -4.4294462
  O     -1.4176201      3.7870910      1.9364458
  H     -1.6681349      4.3409953      1.3106887
  H     -1.2941264      3.0367453      1.5088128
  O     -3.2380009      1.8162501      4.5080791
  H     -2.9549527      2.4445653      3.9730620
  H     -4.0853024      1.7463912      4.3122749
