81
Converted from 12345.nc, frame 5
  C     -0.4370000     -0.1230000     -0.0150000
  O      0.9634718     -0.3262475     -0.0276510
  H      1.3401977      0.5520310      0.0290594
  O     -0.8181955      0.9978912     -0.3144329
  O     -1.1605649     -1.1048464      0.2379340
 Na      4.5479407      3.0107312      2.0358326
  O     -1.5724956     -1.5653142     -2.3305473
  H     -1.3410668     -1.6316570     -1.4919899
  H     -2.1474402     -2.2128847     -2.4365213
  O     -3.3758547     -1.3677119      3.0451741
  H     -2.7664683     -0.9731221      2.5613492
  H     -3.4463935     -0.8529636      3.7460294
  O      1.3906926      5.0868163     -1.6360106
  H      0.8515750      4.4466176     -1.3897641
  H      0.8512192      5.7147508     -1.9113393
  O      0.6300160      1.3725749      4.3003044
  H      1.0256621      0.8808641      4.9026537
  H      0.0448702      0.8312922      3.9456825
  O     -0.6143693      3.2402093     -1.7638263
  H     -1.1701981      3.8559995     -1.4936475
  H     -0.8440197      2.5384297     -1.2991695
  O      3.3626606      4.5524497      1.0598069
  H      2.5263219      4.3700390      0.8912736
  H      3.5197084      5.2609315      0.5755252
  O      1.9943204     -2.5760796      3.8715971
  H      1.6832557     -2.4298828      3.0697212
  H      2.2552772     -3.4080393      3.8418641
  O     -3.9333315     -0.8609918     -0.2899306
  H     -3.0757487     -0.8008875     -0.1413409
  H     -4.2802582     -0.8673867      0.5105321
  O     -2.9816511      4.7555227     -1.3105396
  H     -2.9066973      4.1701493     -1.9530810
  H     -3.0813999      4.2645116     -0.5963281
  O      1.1853818      2.7937849      0.6479442
  H      0.4736799      2.3236384      0.4646896
  H      1.7508380      2.5610030      0.0256811
  O      0.0469586     -3.2483959     -4.5855846
  H      0.5465754     -2.8894877     -5.2042184
  H      0.5309028     -3.1757677     -3.8633225
  O      2.5605230     -4.8113647     -0.8951172
  H      1.8804965     -5.2437520     -0.5608349
  H      2.1892369     -4.1805706     -1.3698643
  O      4.3654046      1.3672370      0.4391499
  H      4.5754509      0.5279042      0.5511350
  H      3.9652531      1.3768896     -0.3360438
  O      2.4535103     -2.9313512     -3.1674814
  H      3.1935687     -3.3636715     -3.0045331
  H      2.7285194     -2.1608138     -3.4704368
  O     -0.6393678     -1.1671382      3.5656471
  H     -0.3581318     -1.6415489      2.8896439
  H     -1.2931935     -1.6433454      3.8925698
  O      0.1039039     -0.2389470     -4.0176697
  H     -0.4705587     -0.7041638     -3.5543063
  H     -0.3495619      0.0038190     -4.7223492
  O     -3.0347986     -3.8938375     -1.2458944
  H     -3.4277034     -4.2364483     -0.5463350
  H     -2.8984516     -3.0627728     -1.0181212
  O     -2.1559341      1.1422278     -5.0151067
  H     -2.7934549      0.5481066     -4.9735537
  H     -2.2900910      1.6367898     -4.3090262
  O     -4.3497124     -0.6841910     -3.7489064
  H     -5.0698271     -0.8823295     -3.2980015
  H     -3.7017002     -0.9130268     -3.2114549
  O      2.3026266      2.0795000     -2.1620328
  H      1.7418154      1.6251053     -2.6520896
  H      2.2961156      2.8728230     -2.5249870
  O     -2.9924695      1.6197327     -2.2888296
  H     -2.7973807      1.6506090     -1.4390491
  H     -2.8718483      0.7810419     -2.4966459
  O      0.5485365      2.9271412     -4.5431175
  H      0.3959739      3.3354597     -3.7873795
  H     -0.1553908      2.4228656     -4.6495700
  O      2.8334763     -0.4263393     -4.4686098
  H      3.1291246      0.3944453     -4.4619527
  H      1.9822819     -0.3391568     -4.2982965
  O     -1.6446500      4.0898581      1.4115001
  H     -0.9255280      4.4110298      1.7868025
  H     -1.4936534      3.2311625      1.3801697
  O     -2.4825094      1.5786880      4.3539920
  H     -1.6707414      1.8881248      4.2738590
  H     -2.9814446      2.2358003      4.0704312
