83
Conf 7.
C          -0.43700001    -0.12300000    -0.01500000
O           0.98954016    -0.37497586     0.03358439
H           1.43080020     0.42345273    -0.31083488
O          -0.73178315     1.07342744    -0.26526886
O          -1.15038204    -1.07105827     0.28713802
Na          4.39418411     2.90569472     1.97888279
O          -1.58933461    -1.87953067    -2.45641613
H          -1.46940446    -1.71610451    -1.60785961
H          -0.78155237    -1.85930109    -2.78538156
O          -3.41329741    -1.26741183     2.98276949
H          -2.88969660    -0.72999853     2.53760815
H          -3.59326839    -0.82188600     3.71095681
O           1.47157347     4.94981241    -1.55593133
H           1.04881513     4.22851372    -1.80521560
H           0.86859030     5.57620811    -1.62789822
O           0.73172516     1.31885302     4.23323822
H           0.90821582     1.61428249     5.03493118
H           0.67717206     0.45475218     4.34044456
O          -0.62264264     3.41109586    -1.81312609
H          -1.31490386     3.70293474    -1.36956775
H          -0.61308384     2.55622554    -1.63921607
O           3.14306784     4.63813400     0.95929915
H           2.53808355     4.02514172     1.09848917
H           3.05970383     4.81951284     0.11001012
O           2.18680000    -2.65258527     3.84389877
H           2.24519873    -2.06652141     3.20026970
H           1.42692876    -3.05228353     3.68905520
O          -3.93005109    -0.82461023    -0.15596309
H          -3.06692171    -0.93607014    -0.09493919
H          -4.16494560    -0.59541130     0.65238822
O          -2.95654202     4.80455160    -1.27751791
H          -3.28114128     4.64105606    -2.07064104
H          -3.52241111     4.41476440    -0.73993266
O           1.25227416     2.71679759     0.71560001
H           0.76412421     2.11028242     1.10928595
H           1.05856907     2.61925125    -0.12944590
O          -0.00127306    -3.12850475    -4.47486162
H           0.28197575    -2.74715686    -5.20662880
H           0.73344964    -3.37709427    -4.07545519
O           2.53987360    -4.83949852    -0.77226633
H           1.86593318    -5.26714230    -0.42003897
H           2.16117263    -4.27247810    -1.31652081
O           4.28700781     1.29495943     0.32889235
H           4.19244576     0.43595940     0.20924088
H           3.94840550     1.64162421    -0.39658105
O           2.53735328    -2.96047020    -3.19195914
H           3.27687693    -3.41437459    -3.28259683
H           2.71515465    -2.19918466    -3.57921982
O          -0.69083047    -1.13184345     3.54429746
H          -0.82514024    -0.63440657     2.84026837
H          -1.45182633    -1.54467297     3.65198445
O           0.27732494    -0.08214080    -4.18410826
H          -0.24710719    -0.10735084    -3.48734784
H          -0.27382353     0.02457725    -4.85193014
O          -3.06273794    -3.97297406    -1.11713362
H          -3.76909161    -3.91330338    -0.60856372
H          -2.93892097    -3.15464234    -1.39307225
O          -2.33476448     1.12741792    -4.96361494
H          -2.98195148     0.56321424    -5.11841393
H          -2.54268312     1.47055960    -4.18891287
O          -4.37179708    -0.60038960    -3.78790712
H          -4.39870358    -0.51820260    -2.91977072
H          -4.34133053    -1.46350121    -3.91139698
O           2.40504169     1.96904719    -2.10683894
H           1.92326462     1.42729068    -2.59215355
H           2.44215846     2.69651341    -2.58700013
O          -3.07437062     1.54426789    -2.12274766
H          -2.52716208     1.29186821    -1.49187779
H          -3.51329851     0.81578481    -2.31715536
O           0.66649920     2.97280431    -4.48391771
H           0.25174329     3.65643144    -4.13496065
H           0.06483863     2.34109855    -4.47432709
O           3.00363135    -0.25438952    -4.46498156
H           3.29294372     0.43410206    -4.91599941
H           2.13700533    -0.15407422    -4.47096157
O          -1.66462409     3.93863940     1.41515911
H          -1.62737679     4.78546429     1.20866489
H          -0.83036113     3.68459868     1.39050138
O          -2.59995174     1.59882200     4.27218819
H          -1.75377572     1.78909516     4.36664438
H          -3.00201678     2.34654498     4.47316933
