81
Converted from 12345.nc, frame 7
  C     -0.4370000     -0.1230000     -0.0150000
  O      0.9843533     -0.3649194      0.0120558
  H      1.4366394      0.4792023     -0.1455744
  O     -0.7759172      1.0949593     -0.2873694
  O     -1.1608168     -1.0848354      0.2732358
 Na      4.4450336      2.9398594      1.9977763
  O     -1.6056434     -1.7894925     -2.3970752
  H     -1.2776685     -1.7773330     -1.5887287
  H     -0.8982990     -1.8461621     -2.9046104
  O     -3.3879998     -1.3023936      2.9999871
  H     -2.9252286     -0.7254838      2.5372157
  H     -3.5761781     -0.8719488      3.7351375
  O      1.4361778      4.9859304     -1.5891818
  H      1.0457692      4.2063274     -1.5585293
  H      0.7723575      5.5442276     -1.6829177
  O      0.6944568      1.3343588      4.2525644
  H      1.0200337      1.4614048      5.0519381
  H      0.6564038      0.4655961      4.1822591
  O     -0.6101300      3.3718150     -1.8040299
  H     -1.2414325      3.7697120     -1.3520627
  H     -0.7034225      2.5311506     -1.5902095
  O      3.2145400      4.6109295      0.9993501
  H      2.4554341      4.1830554      0.9566704
  H      3.2676175      5.0121169      0.2264523
  O      2.1278725     -2.6236606      3.8596709
  H      2.1389315     -2.1591902      3.1212370
  H      1.6300932     -3.3121939      3.6614864
  O     -3.9277575     -0.8545623     -0.1811102
  H     -3.1086044     -0.5656203     -0.2625976
  H     -4.1790867     -0.5428179      0.5939954
  O     -2.9686828      4.8049364     -1.2780461
  H     -3.1091788      4.5051355     -2.0852139
  H     -3.4412796      4.2707191     -0.7756485
  O      1.2421244      2.7360187      0.7023723
  H      0.5244868      2.3306911      0.9884588
  H      1.2121627      2.6205940     -0.1618724
  O      0.0101529     -3.1687315     -4.5171542
  H      0.3993653     -2.8588493     -5.2338314
  H      0.6637363     -3.2411542     -3.9438105
  O      2.5464513     -4.8334694     -0.8057775
  H      1.8910177     -5.2764750     -0.4379568
  H      2.1422701     -4.2782297     -1.3438164
  O      4.3008685      1.3133054      0.3701251
  H      4.3692265      0.4496102      0.2676691
  H      4.0794387      1.5972520     -0.4245338
  O      2.5159881     -2.9552367     -3.1811943
  H      3.2585261     -3.4116163     -3.2198546
  H      2.7001741     -2.2259824     -3.6232388
  O     -0.6851345     -1.1434090      3.5706158
  H     -0.7541208     -0.8670010      2.7460074
  H     -1.3842193     -1.6548667      3.6746876
  O      0.2278947     -0.1307912     -4.1346664
  H     -0.3637914     -0.3872424     -3.5470610
  H     -0.2298519     -0.0735172     -4.8751574
  O     -3.0461707     -3.9497707     -1.1579885
  H     -3.7050304     -4.0393276     -0.5931675
  H     -2.9762437     -3.0857155     -1.2562642
  O     -2.2860103      1.1346693     -4.9868493
  H     -2.8875358      0.5118086     -5.0933914
  H     -2.4414070      1.4344655     -4.1824160
  O     -4.3846111     -0.6213668     -3.7888446
  H     -4.5943489     -0.4925697     -2.9518495
  H     -4.0448980     -1.4249271     -3.7938807
  O      2.3752751      1.9917032     -2.1298258
  H      1.8644816      1.5158514     -2.6530795
  H      2.4064927      2.7688608     -2.5250361
  O     -3.0551181      1.5649414     -2.1720955
  H     -2.6590276      1.4484137     -1.4035428
  H     -3.2885170      0.7578077     -2.4070418
  O      0.6301568      2.9562926     -4.5049353
  H      0.3411570      3.6360795     -4.0407066
  H     -0.0209922      2.3783090     -4.4494419
  O      2.9553695     -0.3021373     -4.4681029
  H      3.2929220      0.4186320     -4.8254395
  H      2.1036110     -0.1225874     -4.4097180
  O     -1.6625061      3.9767082      1.4118181
  H     -1.3552226      4.7932329      1.4137715
  H     -0.9417132      3.4863572      1.3778645
  O     -2.5612547      1.5939714      4.2963443
  H     -1.7526342      1.9142764      4.3647323
  H     -3.0697098      2.2888868      4.4367208
