18

   O       0.7206426703   -1.3825569995   -0.3765089599
   H      -0.0515099944   -0.8081361331   -0.6428072208
   H       1.4692100723   -1.0054266716   -0.9108897113
   O      -1.3216535995    0.3861239320   -0.8235581039
   H      -1.9292376331    0.7294333192   -1.5650478752
   H      -1.1637201230    1.1610161267   -0.3198432841
   O       0.8316041368   -1.0377691076    2.4265917293
   H       1.0273615795   -1.2248408910    1.4576217252
   H       1.4108906588   -1.7116823961    2.8555770859
   O       2.7675251775    0.3421284550   -1.5063007594
   H       2.8117141650    0.8136154759   -0.6896534926
   H       3.5856049208   -0.1895320476   -1.5827589226
   O      -0.9101248813    2.7034081035    0.7974798499
   H      -0.2237502174    2.5691719544    1.4172171879
   H      -0.8821967565    3.5949944191    0.4873903430
   O      -2.8392946934   -1.7544757925    0.0036773556
   H      -2.9501748710   -2.3007578720   -0.8070645916
   H      -2.4088946078   -0.8826110200   -0.2287897611
18

   O       0.7154755587   -1.3805984272   -0.3775356506
   H      -0.0702909868   -0.7957602829   -0.6706978849
   H       1.4746664769   -1.0023709163   -0.8937822037
   O      -1.3204789765    0.3850413930   -0.8229884963
   H      -1.9219419979    0.7520904459   -1.5681017425
   H      -1.1499824117    1.1554565845   -0.3297476728
   O       0.8270030230   -1.0350812909    2.4247542044
   H       1.0232297037   -1.2062646849    1.4621330299
   H       1.4052294644   -1.7399533355    2.8822117903
   O       2.7702292535    0.3446587023   -1.5084157058
   H       2.7918320220    0.8224467917   -0.6838704446
   H       3.5845636904   -0.1843358030   -1.5700920393
   O      -0.9051650838    2.7011779466    0.7953300839
   H      -0.2083844420    2.5574315650    1.4194874348
   H      -0.8881223238    3.5815368088    0.5050340602
   O      -2.8356338771   -1.7597871010    0.0060581432
   H      -2.9687748417   -2.2687860001   -0.7930017442
   H      -2.4200714990   -0.9032761250   -0.2223047505
18

   O       0.7100963508   -1.3778493093   -0.3791925007
   H      -0.0747525257   -0.7953663875   -0.6921467673
   H       1.4723614848   -1.0016701876   -0.8724744419
   O      -1.3206374396    0.3836570344   -0.8245453054
   H      -1.9001690956    0.7641056232   -1.5558456888
   H      -1.1303491822    1.1705504101   -0.3219644464
   O       0.8235274606   -1.0333618941    2.4231184896
   H       1.0130372802   -1.1863153972    1.4718943862
   H       1.3862584271   -1.7531223484    2.8995014557
   O       2.7729724182    0.3468450582   -1.5110669837
   H       2.7743821064    0.8327602170   -0.6721004157
   H       3.5811006907   -0.1756465886   -1.5548661546
   O      -0.9007947010    2.6976074389    0.7930417023
   H      -0.1862618968    2.5459013997    1.4280157050
   H      -0.8915346196    3.5876757642    0.5179357922
   O      -2.8321045937   -1.7649135662    0.0088399117
   H      -2.9857658124   -2.2358387512   -0.7829542068
   H      -2.4322168958   -0.9304382884   -0.2165170055


















































