18
converted from test.pdb
O	0.081	2.607	-0.195
H	-0.648	2.210	-0.706
H	1.038	2.666	0.112
O	-1.638	1.732	-2.132
H	-2.168	2.467	-2.508
H	-1.435	0.749	-1.980
O	-1.074	1.403	1.864
H	-0.510	2.002	1.331
H	-1.650	1.238	2.632
O	2.125	1.547	1.681
H	2.962	1.579	1.236
H	1.209	1.507	1.957
O	-0.813	-1.211	0.636
H	-0.906	-0.302	0.980
H	-0.347	-2.043	0.741
O	-0.479	-0.641	-1.920
H	-0.545	-0.760	-0.928
H	0.239	-0.763	-2.544
