18
Conf 9.
O          14.48354626    -2.94263315    -5.28314495
H          14.82200718    -3.77041817    -4.82277298
H          14.71523762    -2.23057127    -5.90303135
O         -25.25010300    -3.61020660   -12.38010597
H         -25.06068802    -4.03406763   -11.50438309
H         -25.72077942    -3.30766106   -13.17157650
O           2.54376340   -15.00329685   -11.38611412
H           1.89271855   -14.32516670   -11.67540836
H           2.68820310   -15.88424587   -11.01485157
O          -3.90554428    14.99254131    -6.26333714
H          -4.42370272    15.16994190    -5.49514151
H          -3.33718944    14.85577774    -7.08538198
O          10.50073910    14.80481339    -6.09639168
H           9.60552120    14.86320114    -6.06759834
H          11.20838070    14.53557491    -6.76838017
O          24.73396301    -5.17702055    12.46680832
H          25.49324608    -5.14230585    13.06546402
H          24.07197762    -4.89236021    11.86222649
