18
Conf 3.
O          16.77752876    -2.47466850     2.70763469
H          16.47605515    -1.90568614     1.97851706
H          16.93012047    -2.79215169     3.66441774
O         -18.28241158    -3.64241147   -11.30061722
H         -18.46078682    -3.06308365   -12.06050777
H         -17.91839027    -4.39661217   -10.79895973
O          -0.49172252   -10.48482513    -1.70737708
H          -0.72159517   -11.38015938    -1.96623862
H          -0.44119069    -9.48663616    -1.75698948
O          -6.14227533     8.53643036    -7.01045799
H          -5.56025219     9.20947933    -6.61072540
H          -6.84003687     8.32044983    -7.69635963
O           7.54271173    10.05830479     1.41107988
H           7.65604496    10.66585541     0.64226067
H           7.35273409     9.60411739     2.24902105
O          18.23325157    -8.49099255    11.25535583
H          18.23261833    -7.85705805    11.95439625
H          18.21399689    -8.73781490    10.28380203
