6
Written by ff_opt active learning
  O      1.1400000     -1.8970000     -1.3900000
  H      1.9349999     -2.3540001     -1.7450000
  H      0.3010000     -1.4299999     -1.2690001
  O     -0.7580000      1.2250000      0.1010000
  H     -1.6700000      1.0630000     -0.1630000
  H      0.1090000      1.1090000      0.5140000
