18
Conf 2.
O          14.56245995     3.93505001     4.74293518
H          14.12112141     4.43585539     5.38788223
H          15.30788136     3.69465876     4.19162130
O         -14.57366085   -10.17586899    -7.51139975
H         -15.09299278    -9.63435364    -6.92079926
H         -13.86908150   -10.44613171    -8.20279884
O          -4.16991234   -13.66060543    -0.33730015
H          -3.89849901   -13.92428398    -1.24368989
H          -4.56700039   -13.35022259     0.52379566
O          -6.20125055    13.70554543    -4.28071451
H          -6.17390490    12.98376560    -3.63911963
H          -6.47621727    14.42474365    -4.84558868
O          13.44217587     8.00470734     5.33235407
H          13.57847786     8.79922962     4.75561953
H          13.22549152     7.18397999     5.88705826
O          13.37812233   -11.22981548     8.40551376
H          13.44189835   -10.37930393     8.03613186
H          13.30956459   -12.17864227     8.72514534
