18
Conf 1.
O          15.13362980     5.57449961     5.88314056
H          14.49331379     6.01257515     6.48545170
H          15.61694241     4.86906242     5.40673637
O         -14.76629066    -8.23295498    -6.56806135
H         -14.40167522    -8.20992661    -5.66723013
H         -15.40205383    -8.39449215    -7.26119995
O          -3.02734971   -13.10217094     1.56779087
H          -2.42103934   -13.87271595     1.66925311
H          -3.30539966   -12.31382179     2.04886127
O          -3.44162655    14.28553009    -0.12317253
H          -4.38757038    14.36686516     0.20224760
H          -2.92738223    14.37317467    -0.95447010
O          13.07013512     9.46676159     5.94911003
H          13.91860580     9.23916054     6.41009855
H          12.37131691     9.58419418     5.28920412
O          14.02104664    -6.41164923     7.17216158
H          14.58486748    -5.94114017     7.78354645
H          13.11474419    -6.43678617     6.77819538
18
Conf 2.
O          14.56245995     3.93505001     4.74293518
H          14.12112141     4.43585539     5.38788223
H          15.30788136     3.69465876     4.19162130
O         -14.57366085   -10.17586899    -7.51139975
H         -15.09299278    -9.63435364    -6.92079926
H         -13.86908150   -10.44613171    -8.20279884
O          -4.16991234   -13.66060543    -0.33730015
H          -3.89849901   -13.92428398    -1.24368989
H          -4.56700039   -13.35022259     0.52379566
O          -6.20125055    13.70554543    -4.28071451
H          -6.17390490    12.98376560    -3.63911963
H          -6.47621727    14.42474365    -4.84558868
O          13.44217587     8.00470734     5.33235407
H          13.57847786     8.79922962     4.75561953
H          13.22549152     7.18397999     5.88705826
O          13.37812233   -11.22981548     8.40551376
H          13.44189835   -10.37930393     8.03613186
H          13.30956459   -12.17864227     8.72514534
18
Conf 3.
O          15.63556194     5.39845562     5.98017550
H          16.48670197     5.72100210     6.44315720
H          14.84234619     5.16784811     5.51713753
O         -15.52168465    -8.97533226    -9.18140507
H         -16.27181244    -8.55815601    -9.67545414
H         -14.76163006    -9.60117245    -9.23311424
O          -4.14959764   -13.85744572     1.67914057
H          -4.20526552   -14.81326294     1.60563171
H          -4.44591808   -12.96896935     1.82690704
O          -7.28615189    14.66214275    -8.23508835
H          -6.74876022    15.31372261    -7.75758600
H          -8.03671932    14.44183350    -8.85937023
O          12.05519009     7.92243624     4.74903631
H          11.40198803     8.51596546     4.29331493
H          12.72198963     7.37339640     5.19676781
O          14.02772617    -9.76238155     9.68258858
H          14.15073109    -8.98143291    10.19780064
H          13.91404152   -10.10442638     8.76462936
18
Conf 4.
O          16.43568420     0.14127979     4.51911211
H          15.60976028     0.03114317     4.95737791
H          17.31881905    -0.18696606     4.27996206
O         -16.59824181    -9.23562431    -8.51305580
H         -17.10393143    -9.80780602    -7.91661501
H         -16.62972832    -8.48011875    -9.11411190
O          -3.51312733   -14.16366577    -1.20056736
H          -2.50457215   -14.14579487    -1.00097597
H          -4.39684629   -13.89010334    -1.23527956
O          -4.96898031    14.33826065    -8.55363464
H          -5.53296947    14.13681126    -9.28403950
H          -4.99061394    14.66412544    -7.63460636
O          10.73837090     8.61527348     4.83067846
H          10.68267250     7.65263653     4.66636372
H          10.95034409     9.33729839     5.42076111
O          16.70188904    -9.47352600     9.24844933
H          16.59886169    -9.07059669     8.34435558
H          16.04042435    -9.84389496     9.80638599
18
Conf 5.
O          17.02645683     3.03690886     3.23340130
H          17.38863182     3.47270703     4.05483437
H          16.51201630     2.48680997     2.58912873
O         -19.61778069    -7.73262978    -7.63061762
H         -19.39731026    -7.52656651    -8.51778316
H         -19.85560799    -7.57923937    -6.68168306
O          -4.94724226   -11.98211193    -2.68846083
H          -4.74901581   -11.41496468    -3.40791321
H          -5.17758608   -12.39813042    -1.81985879
O          -4.30076218    12.34975147    -4.77883053
H          -4.99046373    12.29763603    -5.50086880
H          -3.49406981    12.59687805    -4.28363752
O          15.85552788    12.25966072     8.58169746
H          15.25865936    11.62269878     9.04012966
H          16.43803787    12.89859009     8.13816833
O          19.07844353    -5.83267355     8.14455700
H          20.07049751    -5.90866709     8.11644554
H          18.14407730    -5.68599319     7.94712448
18
Conf 6.
O          15.26396942     2.59016466     1.41034222
H          16.03030205     2.33690381     1.93662775
H          14.40710163     2.56642985     0.99073458
O         -20.12703514    -6.68524837    -9.20114517
H         -19.99123192    -5.78211927    -9.54164124
H         -19.98319626    -7.41019869    -8.57283688
O          -6.10255241   -12.86142635    -6.61270761
H          -5.22701979   -13.19779015    -6.48874187
H          -6.96099377   -12.75063992    -6.16588879
O          -0.96158338    12.81213093    -8.23941994
H          -0.90920478    13.69824982    -8.36636066
H          -1.32225502    12.14087963    -7.65931129
O          16.05452919     9.95056343     2.13711786
H          16.48042679     9.33429337     1.51509833
H          15.88579845    10.74824142     2.60677266
O          19.78682899    -7.21869469     9.33325863
H          19.31666756    -7.83476257     8.67038727
H          20.34192467    -6.93739319    10.06398773
18
Conf 7.
O          14.34789562     8.47346687     1.51709425
H          15.31016064     8.68025017     1.40657866
H          13.40121937     8.24032879     1.34483695
O         -18.08459091    -6.73900414    -9.04247284
H         -18.68280792    -7.50526428    -8.96251583
H         -17.52612495    -5.93098640    -9.09790230
O          -4.11154222   -15.33406448    -5.05442429
H          -3.67192078   -16.08289337    -4.59002256
H          -4.77309990   -15.12872410    -5.70481396
O          -1.17420614    16.58335304    -9.90878487
H          -0.17535019    16.50060272    -9.90922737
H          -2.12101483    16.48551178    -9.91762257
O          15.82504082    13.21261406     1.38401794
H          15.93821621    13.91733551     2.05039239
H          16.09205627    12.67017078     0.58088714
O          18.56399155    -4.57042885     9.69315147
H          18.89769554    -4.03562689     8.90095329
H          18.29448700    -5.00740194    10.43996906
18
Conf 8.
O          13.97360420     7.56471395     0.75042164
H          13.13783550     7.76328135     1.24658990
H          14.83894539     7.42626286     0.45432818
O         -19.43577576    -8.30126572   -10.48150253
H         -19.63832855    -8.98957348   -11.06397057
H         -19.11928368    -7.59650326    -9.83957291
O          -2.81433511   -18.23928070    -7.68794155
H          -3.63199925   -18.42858505    -7.19662571
H          -1.87483394   -17.94224739    -7.91385365
O          -2.61608076    18.30438614    -6.28883123
H          -2.91355252    17.41296387    -6.53463840
H          -1.94662285    18.92904472    -6.66215277
O          17.25959015    15.83285046    -1.86851263
H          17.58722305    15.22211361    -2.52114606
H          17.15999031    16.23337746    -1.00558674
O          18.98577881    -5.37314415    11.21253490
H          19.85321808    -5.13947916    10.80048275
H          18.11738205    -5.57982779    11.58631706
18
Conf 9.
O          14.32097816     4.34002113    -1.99613214
H          14.29071712     5.14377785    -1.51572502
H          14.63741875     3.59645224    -2.47848558
O         -21.45296288    -9.71797943   -10.28585720
H         -21.40328598   -10.04208946    -9.34537125
H         -21.65915871    -9.53209686   -11.22012424
O          -0.06943592   -19.15952110    -7.99642706
H          -0.75028789   -18.60394669    -8.41799355
H           0.07301082   -19.90710831    -7.41651630
O          -3.99756813    20.35392189    -7.49153757
H          -4.53212690    20.40756798    -6.72091293
H          -3.47545075    20.17621994    -8.33407784
O          16.17014694    11.70174408    -2.83275580
H          15.31124115    11.55570507    -2.64055324
H          16.87346077    11.39583874    -3.50614047
O          21.58816528    -7.21173429    10.86901283
H          21.87404823    -7.39508629    11.74247074
H          21.29352570    -6.86484480    10.03063393
18
Conf 10.
O          18.05852509     6.33488369     1.94930542
H          18.05149078     7.09363365     2.46736693
H          17.93443489     5.48898220     1.49330533
O         -19.46961212   -10.18512344   -10.29434204
H         -18.52378654   -10.36708355   -10.23305798
H         -20.05949974    -9.47441101    -9.92204094
O           0.29310182   -19.31718826    -3.92601895
H           0.81912166   -19.07945061    -3.12589383
H          -0.50411636   -19.48476219    -4.47794914
O          -5.81515741    19.41145897    -6.53264570
H          -6.20628834    19.98522186    -5.76074553
H          -5.16667271    19.56647873    -7.27235937
O          17.09104538    14.25520325    -0.68885440
H          16.91516876    15.11987591    -1.10048497
H          17.46080017    13.39817905    -0.44632149
O          20.18682289    -8.12541580    10.15007496
H          19.88585091    -7.34909868     9.71661758
H          20.27438736    -8.86156178    10.81668854
