18
Conf 8.
O          13.97360420     7.56471395     0.75042164
H          13.13783550     7.76328135     1.24658990
H          14.83894539     7.42626286     0.45432818
O         -19.43577576    -8.30126572   -10.48150253
H         -19.63832855    -8.98957348   -11.06397057
H         -19.11928368    -7.59650326    -9.83957291
O          -2.81433511   -18.23928070    -7.68794155
H          -3.63199925   -18.42858505    -7.19662571
H          -1.87483394   -17.94224739    -7.91385365
O          -2.61608076    18.30438614    -6.28883123
H          -2.91355252    17.41296387    -6.53463840
H          -1.94662285    18.92904472    -6.66215277
O          17.25959015    15.83285046    -1.86851263
H          17.58722305    15.22211361    -2.52114606
H          17.15999031    16.23337746    -1.00558674
O          18.98577881    -5.37314415    11.21253490
H          19.85321808    -5.13947916    10.80048275
H          18.11738205    -5.57982779    11.58631706
