18
Conf 1.
O          15.14755917     1.03422225     1.06548476
H          14.74121475     1.88569999     1.28406143
H          15.54406738     0.22355612     0.65023923
O         -22.88127708    -3.74479532   -10.47075558
H         -22.45175171    -3.56886601    -9.61887455
H         -23.52532768    -4.14212275   -11.07871246
O          -4.77386189   -14.55442619    -2.78161550
H          -3.85890841   -14.28790379    -2.96676207
H          -5.31775904   -14.72126007    -2.02631760
O          -7.11170816    10.91131496    -2.45791531
H          -8.05760193    10.98483086    -2.12930775
H          -6.60315514    11.00031090    -3.29237819
O           7.65139246    14.49911880    -0.27185866
H           8.37569809    13.96126652     0.10442048
H           7.19381618    14.86862469    -1.03935492
O          22.84723663    -8.26508141    10.94068813
H          23.40619278    -7.79506207    11.55667210
H          21.94774628    -8.28604221    10.53241253
