18
Conf 2.
O          15.72656918    -1.26309502    -0.49425223
H          14.93249702    -0.94108754    -0.98495948
H          16.65959167    -1.37089574    -0.32018769
O         -22.24228668    -5.26233339   -11.43398571
H         -22.83710480    -4.81466722   -10.83290958
H         -21.41680717    -5.31154680   -12.02498627
O          -5.47269773   -14.66535568    -4.69764185
H          -5.12750340   -14.50517559    -5.64832449
H          -5.85873699   -14.88602638    -3.89041114
O          -9.42543983    10.76769924    -6.63162708
H          -9.39594650    10.05193996    -5.98319387
H          -9.70656300    11.48473549    -7.19735956
O           7.78695297    14.57371998    -0.49858361
H           7.08469534    15.03339100     0.03827721
H           8.44613552    14.29712772    -1.19720185
O          22.65058327   -12.64550877    12.15852070
H          22.71797180   -11.81081963    11.75112724
H          22.57649803   -13.58654404    12.50294590
