18
Converted from {nc}, frame {i}
  O     17.0264568      3.0369089      3.2334013
  H     17.3886318      3.4727070      4.0548344
  H     16.5120163      2.4868100      2.5891287
  O    -19.6177807     -7.7326298     -7.6306176
  H    -19.3973103     -7.5265665     -8.5177832
  H    -19.8556080     -7.5792394     -6.6816831
  O     -4.9472423    -11.9821119     -2.6884608
  H     -4.7490158    -11.4149647     -3.4079132
  H     -5.1775861    -12.3981304     -1.8198588
  O     -4.3007622     12.3497515     -4.7788305
  H     -4.9904637     12.2976360     -5.5008688
  H     -3.4940698     12.5968781     -4.2836375
  O     15.8555279     12.2596607      8.5816975
  H     15.2586594     11.6226988      9.0401297
  H     16.4380379     12.8985901      8.1381683
  O     19.0784435     -5.8326735      8.1445570
  H     20.0704975     -5.9086671      8.1164455
  H     18.1440773     -5.6859932      7.9471245
