18
Converted from 135.nc, frame 6
  O     14.3478956      8.4734669      1.5170943
  H     15.3101606      8.6802502      1.4065787
  H     13.4012194      8.2403288      1.3448370
  O    -18.0845909     -6.7390041     -9.0424728
  H    -18.6828079     -7.5052643     -8.9625158
  H    -17.5261250     -5.9309864     -9.0979023
  O     -4.1115422    -15.3340645     -5.0544243
  H     -3.6719208    -16.0828934     -4.5900226
  H     -4.7730999    -15.1287241     -5.7048140
  O     -1.1742061     16.5833530     -9.9087849
  H     -0.1753502     16.5006027     -9.9092274
  H     -2.1210148     16.4855118     -9.9176226
  O     15.8250408     13.2126141      1.3840179
  H     15.9382162     13.9173355      2.0503924
  H     16.0920563     12.6701708      0.5808871
  O     18.5639915     -4.5704288      9.6931515
  H     18.8976955     -4.0356269      8.9009533
  H     18.2944870     -5.0074019     10.4399691
