18
Converted from 135.nc, frame 7
  O     13.9736042      7.5647140      0.7504216
  H     13.1378355      7.7632813      1.2465899
  H     14.8389454      7.4262629      0.4543282
  O    -19.4357758     -8.3012657    -10.4815025
  H    -19.6383286     -8.9895735    -11.0639706
  H    -19.1192837     -7.5965033     -9.8395729
  O     -2.8143351    -18.2392807     -7.6879416
  H     -3.6319993    -18.4285851     -7.1966257
  H     -1.8748339    -17.9422474     -7.9138536
  O     -2.6160808     18.3043861     -6.2888312
  H     -2.9135525     17.4129639     -6.5346384
  H     -1.9466228     18.9290447     -6.6621528
  O     17.2595901     15.8328505     -1.8685126
  H     17.5872231     15.2221136     -2.5211461
  H     17.1599903     16.2333775     -1.0055867
  O     18.9857788     -5.3731441     11.2125349
  H     19.8532181     -5.1394792     10.8004827
  H     18.1173820     -5.5798278     11.5863171
