18
Conf 9.
O          14.32097816     4.34002113    -1.99613214
H          14.29071712     5.14377785    -1.51572502
H          14.63741875     3.59645224    -2.47848558
O         -21.45296288    -9.71797943   -10.28585720
H         -21.40328598   -10.04208946    -9.34537125
H         -21.65915871    -9.53209686   -11.22012424
O          -0.06943592   -19.15952110    -7.99642706
H          -0.75028789   -18.60394669    -8.41799355
H           0.07301082   -19.90710831    -7.41651630
O          -3.99756813    20.35392189    -7.49153757
H          -4.53212690    20.40756798    -6.72091293
H          -3.47545075    20.17621994    -8.33407784
O          16.17014694    11.70174408    -2.83275580
H          15.31124115    11.55570507    -2.64055324
H          16.87346077    11.39583874    -3.50614047
O          21.58816528    -7.21173429    10.86901283
H          21.87404823    -7.39508629    11.74247074
H          21.29352570    -6.86484480    10.03063393
