18
Converted from 135.nc, frame 8
  O     14.3209782      4.3400211     -1.9961321
  H     14.2907171      5.1437778     -1.5157250
  H     14.6374187      3.5964522     -2.4784856
  O    -21.4529629     -9.7179794    -10.2858572
  H    -21.4032860    -10.0420895     -9.3453712
  H    -21.6591587     -9.5320969    -11.2201242
  O     -0.0694359    -19.1595211     -7.9964271
  H     -0.7502879    -18.6039467     -8.4179935
  H      0.0730108    -19.9071083     -7.4165163
  O     -3.9975681     20.3539219     -7.4915376
  H     -4.5321269     20.4075680     -6.7209129
  H     -3.4754508     20.1762199     -8.3340778
  O     16.1701469     11.7017441     -2.8327558
  H     15.3112411     11.5557051     -2.6405532
  H     16.8734608     11.3958387     -3.5061405
  O     21.5881653     -7.2117343     10.8690128
  H     21.8740482     -7.3950863     11.7424707
  H     21.2935257     -6.8648448     10.0306339
