18
Converted from {nc}, frame {i}
  O     15.1475592      1.0342222      1.0654848
  H     14.7412148      1.8857000      1.2840614
  H     15.5440674      0.2235561      0.6502392
  O    -22.8812771     -3.7447953    -10.4707556
  H    -22.4517517     -3.5688660     -9.6188745
  H    -23.5253277     -4.1421227    -11.0787125
  O     -4.7738619    -14.5544262     -2.7816155
  H     -3.8589084    -14.2879038     -2.9667621
  H     -5.3177590    -14.7212601     -2.0263176
  O     -7.1117082     10.9113150     -2.4579153
  H     -8.0576019     10.9848309     -2.1293077
  H     -6.6031551     11.0003109     -3.2923782
  O      7.6513925     14.4991188     -0.2718587
  H      8.3756981     13.9612665      0.1044205
  H      7.1938162     14.8686247     -1.0393549
  O     22.8472366     -8.2650814     10.9406881
  H     23.4061928     -7.7950621     11.5566721
  H     21.9477463     -8.2860422     10.5324125
