18
Converted from 253.nc, frame 3
  O     17.2676296     -6.8066468     -1.1701463
  H     16.4240570     -6.9308119     -0.7634851
  H     18.1319046     -7.1634378     -1.4302496
  O    -24.9447708     -5.0250201    -12.4426460
  H    -25.4137688     -5.6062379    -11.8244762
  H    -25.0208073     -4.3001666    -13.0752907
  O     -5.4984360    -15.8749781     -5.5944195
  H     -4.5604177    -15.5914021     -5.8021317
  H     -6.1925015    -16.0703182     -4.9584713
  O     -8.8736925     10.6882391    -10.9176140
  H     -9.4367313     10.4875240    -11.6490383
  H     -8.8969803     11.0147877     -9.9988050
  O      4.0524416     15.5227203     -0.6042506
  H      3.9081497     14.5731354     -0.7762169
  H      4.2815938     16.2176838      0.0097511
  O     25.2946339    -11.6033659     12.9869490
  H     25.1897163    -11.1948605     12.0838785
  H     24.6315899    -11.9630995     13.5532513
