18
Conf 6.
O          15.82542133    -5.74632168    -4.20515585
H          15.81852341    -6.26193428    -3.40083647
H          15.58479881    -5.15461063    -4.94045877
O         -28.75030518    -3.83346796   -13.05714130
H         -28.62354469    -2.93046641   -13.40281200
H         -28.60634232    -4.54779625   -12.41669750
O          -8.36075592   -15.93718815   -10.88897133
H          -8.12020779   -16.16345978   -11.78957367
H          -8.52022934   -15.99578762    -9.92365837
O          -5.14209223     7.80535650   -10.52822781
H          -5.09368420     8.68947124   -10.67110062
H          -5.51082945     7.13865662    -9.94819450
O           9.08669949    15.51114845    -3.22488952
H           9.54100132    14.89289474    -3.82413602
H           8.90074348    16.31082344    -2.76046634
O          28.10469437   -10.70347023    13.14614201
H          27.66165543   -11.36498642    12.51539516
H          28.63117027   -10.38119984    13.88077164
