18
Converted from 253.nc, frame 6
  O     14.8978395     -0.0551930     -4.5375118
  H     15.8478975     -0.2330946     -4.6623878
  H     13.9604187      0.1460684     -4.6927104
  O    -26.7168484     -4.0664163    -13.3231153
  H    -27.3198051     -4.8313441    -13.2542868
  H    -26.1489677     -3.2641799    -13.3641863
  O     -6.4085684    -18.5879097     -9.7855978
  H     -5.4149132    -18.5624180     -9.6751566
  H     -7.0140533    -19.2527695    -10.0554552
  O     -5.3636069     11.3965569    -12.6234789
  H     -4.3643017     11.3169994    -12.6208944
  H     -6.3101306     11.2962608    -12.6355124
  O      8.8374949     18.6238651     -4.3847036
  H      9.1294661     19.4001350     -3.8678708
  H      9.0412569     17.9884872     -5.1397419
  O     26.8737946     -8.2364321     13.0831366
  H     27.2006702     -7.7123051     12.2812080
  H     26.6108971     -8.6544600     13.8421459
