18
Converted from {nc}, frame {i}
  O     15.0160761     -1.4893196     -7.7627916
  H     15.0347691     -0.6881003     -7.2723937
  H     15.2687950     -2.2583470     -8.2473841
  O    -29.9486179     -4.2989416    -14.2819691
  H    -30.4763298     -4.2950387    -13.4418392
  H    -29.3078976     -4.6116800    -14.9417791
  O     -2.2106307    -19.6784000    -12.4185619
  H     -3.1126332    -19.7370834    -12.6895809
  H     -1.3128507    -19.8694210    -12.2285757
  O     -8.0357180     17.9041595     -9.9121504
  H     -8.5686207     17.9595985     -9.1405067
  H     -7.5153360     17.7266827    -10.7558365
  O      9.3499479     19.8811092     -8.3193321
  H      8.6665697     20.0167866     -7.7807789
  H      9.8382578     19.4712009     -9.1209641
  O     30.0496140     -8.1406317     14.5531588
  H     30.3571949     -8.3203230     15.4197397
  H     29.7314854     -7.7893205     13.7254810
