18
Converted from 928.nc, frame 8
  O     14.4835463     -2.9426332     -5.2831450
  H     14.8220072     -3.7704182     -4.8227730
  H     14.7152376     -2.2305713     -5.9030313
  O    -25.2501030     -3.6102066    -12.3801060
  H    -25.0606880     -4.0340676    -11.5043831
  H    -25.7207794     -3.3076611    -13.1715765
  O      2.5437634    -15.0032969    -11.3861141
  H      1.8927186    -14.3251667    -11.6754084
  H      2.6882031    -15.8842459    -11.0148516
  O     -3.9055443     14.9925413     -6.2633371
  H     -4.4237027     15.1699419     -5.4951415
  H     -3.3371894     14.8557777     -7.0853820
  O     10.5007391     14.8048134     -6.0963917
  H      9.6055212     14.8632011     -6.0675983
  H     11.2083807     14.5355749     -6.7683802
  O     24.7339630     -5.1770205     12.4668083
  H     25.4932461     -5.1423059     13.0654640
  H     24.0719776     -4.8923602     11.8622265
