18
Conf 1.
O          14.79430676    -0.35111317     3.48232627
H          14.44555473     0.51633698     3.72727966
H          15.18616295    -1.14902544     3.01837254
O         -18.03815079    -2.96434712    -8.62438107
H         -17.62031937    -3.02096581    -7.74813843
H         -18.62559128    -3.19060588    -9.34127998
O           0.12887120    -9.79907227    -1.77886605
H           0.89956689   -10.39352512    -1.88456333
H          -0.38969636    -9.09592438    -1.40183711
O          -2.79847765     8.08543110     1.13919318
H          -3.71074200     8.23422050     1.54434693
H          -2.49157858     8.13578224     0.20438470
O           8.97579288     9.50413799     1.86378384
H           9.59536266     9.14607143     2.53660464
H           8.53023338     9.67922115     0.99385232
O          17.70375443    -5.20845175     8.79833221
H          18.39805794    -4.72760916     9.23516846
H          16.78007507    -5.36434555     8.53416157
18
Conf 2.
O          15.41925240    -2.65524626     1.84320998
H          14.82190132    -2.55670524     2.57736063
H          16.19976997    -2.73652124     1.26431108
O         -17.34817505    -4.50348139    -9.63116741
H         -17.84835052    -3.90910745    -9.08041096
H         -16.69114494    -4.76740789   -10.37085438
O          -0.52436954    -9.92561150    -3.76028657
H          -0.33734185   -10.02529526    -4.75428009
H          -0.89611739    -9.99347305    -2.93136930
O          -5.07753897     7.92618561    -3.08100510
H          -5.02723265     7.18492699    -2.46912146
H          -5.37553787     8.58555126    -3.69737720
O           9.15591621     9.56443501     1.59884894
H           8.37664795     9.86711884     2.14337611
H           9.80909729     9.30477524     0.88826495
O          17.56323624    -9.62110806     9.96498585
H          17.62081528    -8.75871944     9.61573887
H          17.37804794   -10.58142281    10.26474285
18
Conf 3.
O          16.77752876    -2.47466850     2.70763469
H          16.47605515    -1.90568614     1.97851706
H          16.93012047    -2.79215169     3.66441774
O         -18.28241158    -3.64241147   -11.30061722
H         -18.46078682    -3.06308365   -12.06050777
H         -17.91839027    -4.39661217   -10.79895973
O          -0.49172252   -10.48482513    -1.70737708
H          -0.72159517   -11.38015938    -1.96623862
H          -0.44119069    -9.48663616    -1.75698948
O          -6.14227533     8.53643036    -7.01045799
H          -5.56025219     9.20947933    -6.61072540
H          -6.84003687     8.32044983    -7.69635963
O           7.54271173    10.05830479     1.41107988
H           7.65604496    10.66585541     0.64226067
H           7.35273409     9.60411739     2.24902105
O          18.23325157    -8.49099255    11.25535583
H          18.23261833    -7.85705805    11.95439625
H          18.21399689    -8.73781490    10.28380203
18
Conf 4.
O          16.99843025    -8.60775948     1.11499965
H          16.15083313    -8.67636108     1.50867617
H          17.85395241    -8.93911839     0.78058296
O         -20.03075981    -4.65384150   -10.72967148
H         -20.44770432    -5.32031488   -10.15975571
H         -20.00498962    -3.99143505   -11.42565727
O          -0.52342951   -11.53029346    -4.73328257
H           0.40494820   -11.47704411    -5.09523058
H          -1.24917626   -11.55832291    -4.11657572
O          -4.49256039     7.46952629    -7.45664024
H          -5.07278538     7.50680971    -8.18892288
H          -4.50600052     7.20683479    -6.53715706
O           5.45170403    10.11333752     1.40275311
H           5.35662746     9.13065910     1.31257212
H           5.58671284    10.84401894     2.02142835
O          20.22016907    -8.96727657    10.70459080
H          20.19472122    -8.52151489     9.82113552
H          19.68011284    -9.40263367    11.31954575
18
Conf 5.
O          17.32716942    -8.13452530     0.30912456
H          17.41173744    -7.75482845     1.22013903
H          17.05100060    -8.63380241    -0.49772444
O         -23.29767036    -5.56757307    -9.36771107
H         -23.18701553    -5.15479565   -10.20974159
H         -23.53749084    -5.75129795    -8.42539120
O          -2.21644378   -11.76029396    -5.70866537
H          -2.36308789   -10.94346905    -6.11676025
H          -2.07409716   -12.72615337    -5.49454498
O          -4.10170746     3.05449080    -3.19956565
H          -4.11091661     3.25743270    -4.19512463
H          -3.71106267     2.92395520    -2.32905746
O          10.30117512    11.34940434     5.65247774
H           9.60299683    10.74373531     5.99173403
H          10.93865108    12.01184940     5.31327009
O          22.34963036    -7.74490404    10.09423923
H          23.30995750    -7.46981859    10.10363007
H          21.41664505    -7.83263540     9.86451340
18
Conf 6.
O          15.64168739    -7.29290533    -1.98191082
H          16.40782738    -7.87446594    -1.88477218
H          14.71858978    -6.97189379    -1.92573166
O         -23.73699379    -3.22678113   -11.39306927
H         -23.41006470    -2.36464143   -11.67043400
H         -23.79042053    -4.09856319   -10.99582005
O          -3.27645731   -11.37475872   -10.08916092
H          -3.66124082   -11.18629169   -10.96306610
H          -3.18594050   -11.63805199    -9.15621471
O          -0.68983650     4.80254126    -7.13121271
H          -0.47016507     5.67716408    -7.11378765
H          -0.89443398     4.08815098    -6.51636362
O          10.58827972    10.33340263    -1.26372468
H          11.04232788     9.94848251    -2.03567243
H          10.15758133    10.92374802    -0.65714163
O          23.13002205    -7.83055067    10.80661392
H          22.80986214    -8.65080261    10.30522156
H          23.56288528    -7.43019295    11.56432247
18
Conf 7.
O          14.72566414    -1.85930943    -2.13180900
H          15.61068726    -1.97430944    -2.57561231
H          13.77534771    -1.77219498    -2.03916144
O         -21.69713974    -3.71274924   -11.48099804
H         -22.21454430    -4.51711893   -11.40156841
H         -21.28376389    -2.87028575   -11.78752327
O          -1.33028746   -14.26275826    -8.82176304
H          -0.34727755   -14.33459187    -8.68749714
H          -2.15140176   -14.70207787    -8.95029259
O          -0.89044809     8.15249252    -9.03631592
H           0.10335605     7.98636723    -8.98873901
H          -1.82715976     8.06850529    -9.19783115
O          10.32758617    13.21031570    -2.25238705
H          10.67677021    13.98777390    -1.78156161
H          10.47699642    12.48788834    -2.94712067
O          21.91824722    -5.60064507    10.93361855
H          21.98701096    -5.22094917     9.99739456
H          21.64765930    -6.04346800    11.68141174
18
Conf 8.
O          14.74419594    -2.57612872    -3.01141644
H          15.34984112    -1.96008539    -3.47150540
H          14.29620171    -3.11240315    -2.28885102
O         -22.63872910    -5.04069757   -13.03013229
H         -23.13038254    -4.30912161   -13.39133739
H         -22.05383682    -5.74887085   -12.67064095
O           0.39992112   -16.93046761   -11.54217243
H          -0.41699758   -17.00451469   -11.01873970
H           1.35298836   -16.76372147   -11.83361721
O          -1.91678655    10.09796524    -5.52147055
H          -2.24720383     9.24053669    -5.88264132
H          -1.27670979    10.80447865    -5.78477573
O          12.19775105    16.08788681    -5.59358597
H          12.08904076    16.29021072    -6.49299049
H          12.37827969    15.91075516    -4.65435457
O          22.72747612    -6.19767189    12.34337425
H          22.72963905    -5.86064672    11.40537834
H          22.90284920    -6.14577818    13.28522587
18
Conf 9.
O          14.48354626    -2.94263315    -5.28314495
H          14.82200718    -3.77041817    -4.82277298
H          14.71523762    -2.23057127    -5.90303135
O         -25.25010300    -3.61020660   -12.38010597
H         -25.06068802    -4.03406763   -11.50438309
H         -25.72077942    -3.30766106   -13.17157650
O           2.54376340   -15.00329685   -11.38611412
H           1.89271855   -14.32516670   -11.67540836
H           2.68820310   -15.88424587   -11.01485157
O          -3.90554428    14.99254131    -6.26333714
H          -4.42370272    15.16994190    -5.49514151
H          -3.33718944    14.85577774    -7.08538198
O          10.50073910    14.80481339    -6.09639168
H           9.60552120    14.86320114    -6.06759834
H          11.20838070    14.53557491    -6.76838017
O          24.73396301    -5.17702055    12.46680832
H          25.49324608    -5.14230585    13.06546402
H          24.07197762    -4.89236021    11.86222649
18
Conf 10.
O          18.37641907    -2.79389954    -1.40797925
H          19.30884933    -2.69591498    -1.07895684
H          17.50993347    -2.93533754    -1.79587865
O         -23.09803581    -5.89770222   -12.44025993
H         -22.15590286    -5.92314148   -12.33702755
H         -23.90888214    -5.36624813   -12.23844337
O           3.06851196   -16.97680855    -7.38238716
H           3.60480571   -16.84117126    -6.55969572
H           2.30966377   -17.17445374    -7.97300768
O          -5.55044413    12.24628639    -5.36218882
H          -5.94718170    12.78753948    -4.57569551
H          -5.00484276    12.26338768    -6.19878531
O          11.59754372    15.55890369    -4.02428675
H          11.40219688    16.46014977    -4.34150887
H          11.95162582    14.68904877    -3.79529214
O          23.49504852    -7.90534878    11.68327808
H          23.21338844    -7.11712503    11.24655247
H          23.68134880    -8.63864136    12.33414841
