84
converted from 15.pdb
C	8.756	-0.845	13.675
C	8.842	-0.101	11.418
C	7.653	0.627	11.740
C	6.811	0.446	12.956
C	8.801	-2.229	14.397
H	8.372	-2.125	15.389
H	9.859	-2.536	14.651
H	8.401	-3.014	13.791
C	9.626	0.107	14.409
H	9.764	0.996	13.835
H	10.602	-0.349	14.544
H	9.198	0.335	15.371
C	7.051	1.612	10.875
H	5.994	1.812	11.077
C	7.554	2.352	9.832
C	6.638	3.225	9.211
H	5.627	3.418	9.533
C	7.179	3.974	8.182
H	8.253	3.744	7.965
C	6.518	5.001	7.497
H	5.558	5.360	7.702
C	8.731	5.883	6.719
H	9.134	5.471	7.677
H	8.966	6.889	6.394
C	9.293	4.927	5.587
H	10.395	4.820	5.614
H	8.996	5.331	4.565
H	8.894	3.889	5.663
C	6.539	7.062	6.187
H	5.605	6.735	5.683
H	7.058	7.491	5.324
C	6.294	8.191	7.201
H	5.941	9.135	6.588
H	7.266	8.401	7.417
H	5.688	7.901	8.064
N	7.228	5.845	6.740
O	9.482	-0.115	10.366
O	5.793	1.050	13.237
O	7.366	-0.461	13.819
O	9.233	-1.023	12.357
O	8.859	2.354	9.415
H	9.100	1.451	9.071
C	4.417	9.776	11.563
C	6.652	9.132	11.533
C	6.201	7.833	10.928
C	4.854	7.825	10.269
C	4.117	9.146	12.865
H	4.731	8.265	13.075
H	3.050	8.962	12.954
H	4.367	9.876	13.616
C	3.430	10.960	11.419
H	2.524	10.435	11.529
H	3.616	11.457	10.474
H	3.686	11.648	12.280
C	6.826	6.595	10.718
H	6.387	6.104	9.939
C	8.044	6.215	11.297
C	8.654	4.966	11.096
H	8.337	4.302	10.284
C	9.724	4.529	11.915
H	9.873	5.106	12.809
C	10.302	3.277	11.521
H	9.989	2.907	10.542
C	11.994	3.302	13.259
H	12.167	4.286	12.949
H	12.882	2.820	13.615
C	11.027	3.500	14.487
H	9.890	3.436	14.318
H	11.324	4.490	14.847
H	11.140	2.741	15.263
C	11.948	1.441	11.472
H	11.344	0.547	11.498
H	12.793	1.004	11.951
C	12.440	1.638	10.073
H	12.795	0.665	9.683
H	13.271	2.336	10.044
H	11.576	1.865	9.428
N	11.321	2.617	12.101
O	7.840	9.460	11.755
O	4.496	7.114	9.368
O	4.108	8.908	10.547
O	5.769	10.139	11.499
O	8.464	6.924	12.324
H	9.108	7.564	12.011
