84
converted from 2.pdb
C	13.278	0.953	9.810
C	12.117	2.788	8.633
C	10.899	2.189	9.046
C	10.973	0.623	9.283
C	14.528	0.111	9.629
H	14.738	-0.064	8.610
H	14.492	-0.804	10.153
H	15.327	0.647	10.110
C	13.086	1.320	11.269
H	12.029	1.728	11.417
H	13.803	2.140	11.425
H	13.253	0.537	12.039
C	9.588	2.600	8.794
H	8.752	1.844	8.851
C	9.189	3.878	8.410
C	7.760	4.066	8.411
H	7.019	3.232	8.585
C	7.230	5.329	8.092
H	7.848	6.123	7.816
C	5.869	5.514	7.727
H	5.077	4.685	7.907
C	6.248	7.808	7.025
H	5.751	8.411	6.272
H	7.298	7.504	6.792
C	6.099	8.622	8.331
H	5.093	8.898	8.576
H	6.724	9.437	8.251
H	6.438	8.150	9.257
C	3.940	6.661	6.898
H	3.571	5.834	6.304
H	3.842	7.607	6.436
C	3.206	6.696	8.237
H	3.553	5.961	8.994
H	2.088	6.743	8.281
H	3.488	7.615	8.782
N	5.380	6.604	7.113
O	12.347	3.838	8.038
O	10.027	-0.160	9.294
O	12.200	0.114	9.329
O	13.292	2.077	8.924
O	9.986	4.867	8.237
H	10.523	4.654	7.430
C	2.359	2.793	11.739
C	4.316	3.952	12.491
C	4.922	3.682	11.226
C	4.087	3.360	10.088
C	2.956	1.456	12.043
H	2.545	0.661	11.520
H	2.892	1.168	13.085
H	4.063	1.513	11.758
C	0.907	2.722	11.839
H	0.560	2.241	10.961
H	0.467	3.781	11.793
H	0.537	2.037	12.534
C	6.386	3.796	10.963
H	6.529	3.532	9.877
C	7.371	4.602	11.658
C	8.595	4.704	11.011
H	8.835	4.077	10.138
C	9.576	5.722	11.307
H	9.483	6.382	12.171
C	10.607	5.846	10.378
H	10.422	5.270	9.453
C	12.202	7.141	11.867
H	11.345	7.617	12.319
H	12.931	7.883	11.577
C	12.698	6.074	12.805
H	12.964	6.628	13.682
H	13.563	5.467	12.383
H	11.942	5.313	13.082
C	12.709	6.480	9.544
H	12.850	5.487	9.043
H	13.702	6.666	10.081
C	12.337	7.370	8.368
H	12.412	8.344	8.842
H	11.366	7.228	7.925
H	13.159	7.216	7.674
N	11.765	6.535	10.539
O	4.906	4.408	13.457
O	4.335	3.257	8.874
O	2.758	3.218	10.393
O	2.890	3.703	12.714
O	7.043	5.313	12.736
H	6.479	4.834	13.339
