84
converted from 20.pdb
C	8.678	-0.711	13.346
C	8.411	-0.018	11.061
C	7.168	0.522	11.504
C	6.448	0.056	12.715
C	9.378	-1.913	14.037
H	10.380	-1.975	13.701
H	8.850	-2.818	13.717
H	9.360	-1.772	15.124
C	9.095	0.671	13.919
H	10.137	0.675	13.861
H	8.902	0.769	14.926
H	8.605	1.450	13.259
C	6.348	1.360	10.707
H	5.274	1.380	10.974
C	6.714	2.226	9.679
C	5.731	2.960	9.059
H	4.722	2.904	9.436
C	6.110	3.798	8.056
H	7.183	3.832	7.846
C	5.248	4.667	7.494
H	4.323	4.637	7.844
C	6.846	5.532	5.887
H	6.886	5.790	4.830
H	7.142	4.465	6.090
C	7.848	6.365	6.609
H	8.774	6.236	6.109
H	7.995	5.877	7.596
H	7.592	7.425	6.622
C	4.529	6.519	6.106
H	3.587	6.321	6.616
H	4.344	6.212	5.066
C	5.022	7.955	6.345
H	5.081	8.264	7.416
H	4.366	8.653	5.846
H	6.048	8.150	5.953
N	5.504	5.584	6.628
O	8.764	-0.076	9.898
O	5.245	0.074	12.941
O	7.247	-0.895	13.376
O	9.071	-0.873	11.955
O	8.014	2.332	9.176
H	8.150	1.419	8.755
C	3.838	9.324	10.888
C	5.984	8.715	10.332
C	5.613	7.329	10.383
C	4.229	7.128	10.150
C	4.102	9.085	12.358
H	3.227	8.828	12.848
H	4.421	10.039	12.826
H	4.731	8.218	12.599
C	2.926	10.499	10.462
H	3.125	11.452	10.905
H	1.895	10.220	10.551
H	3.116	10.581	9.413
C	6.332	6.138	10.272
H	5.845	5.208	10.033
C	7.706	5.982	10.651
C	8.275	4.789	10.401
H	7.815	3.953	9.876
C	9.615	4.524	10.694
H	9.895	5.403	11.247
C	10.187	3.296	10.321
H	9.631	2.653	9.741
C	11.972	3.638	11.823
H	12.300	3.030	12.687
H	11.143	4.252	12.182
C	13.088	4.625	11.397
H	13.504	5.024	12.338
H	12.706	5.481	10.754
H	13.899	4.114	10.827
C	12.017	1.692	10.305
H	11.316	0.787	10.080
H	12.851	1.322	10.955
C	12.940	2.060	9.150
H	12.235	2.275	8.394
H	13.535	1.176	8.717
H	13.691	2.834	9.257
N	11.320	2.838	10.847
O	7.128	9.124	10.054
O	3.728	5.978	10.006
O	3.333	8.239	10.165
O	5.081	9.752	10.273
O	8.389	6.965	11.289
H	8.305	7.794	10.794
