84
converted from 25.pdb
C	7.286	-0.161	14.603
C	7.290	-0.926	12.211
C	6.293	0.106	12.039
C	5.517	0.549	13.149
C	7.363	-1.044	15.891
H	6.570	-1.626	16.100
H	7.687	-0.501	16.760
H	8.083	-1.898	15.635
C	8.259	0.948	14.586
H	7.979	1.496	15.513
H	8.123	1.696	13.781
H	9.273	0.428	14.541
C	5.888	0.581	10.783
H	4.898	1.034	10.852
C	6.396	0.623	9.443
C	5.684	1.295	8.406
H	4.702	1.514	8.760
C	6.387	1.755	7.240
H	7.485	1.631	7.319
C	5.776	2.375	6.236
H	4.698	2.615	6.256
C	7.826	2.780	5.136
H	7.852	2.381	6.184
H	8.345	3.664	4.869
C	8.412	1.636	4.281
H	8.352	0.635	4.601
H	9.457	1.740	4.123
H	8.094	1.581	3.241
C	5.691	3.701	4.141
H	4.622	3.369	4.299
H	6.045	3.359	3.193
C	5.800	5.147	4.394
H	4.895	5.468	3.826
H	6.593	5.561	3.786
H	5.783	5.443	5.421
N	6.418	2.938	5.160
O	7.797	-1.550	11.271
O	4.466	1.120	13.025
O	5.901	0.157	14.414
O	7.836	-1.109	13.501
O	7.736	0.264	9.112
H	7.673	-0.695	9.140
C	4.771	8.479	7.543
C	6.442	7.436	9.056
C	5.875	6.155	8.529
C	4.544	6.118	7.855
C	3.802	9.564	7.596
H	3.032	9.461	8.443
H	3.193	9.500	6.713
H	4.326	10.532	7.574
C	5.600	8.420	6.318
H	6.350	7.619	6.472
H	6.344	9.188	6.341
H	4.938	8.326	5.450
C	6.461	4.928	8.870
H	5.982	4.002	8.802
C	7.798	4.678	9.194
C	8.213	3.406	9.513
H	7.417	2.686	9.583
C	9.522	2.988	9.668
H	10.319	3.708	9.772
C	9.656	1.783	10.224
H	8.901	1.157	9.993
C	11.921	1.868	11.271
H	12.400	2.390	10.493
H	12.355	0.852	11.302
C	12.021	2.544	12.568
H	11.083	2.917	12.747
H	12.763	3.413	12.722
H	12.269	1.668	13.289
C	10.354	-0.136	11.245
H	9.299	-0.188	11.713
H	11.096	-0.479	11.947
C	10.404	-0.965	9.925
H	11.372	-1.225	9.503
H	9.861	-0.443	9.150
H	9.740	-1.843	10.181
N	10.570	1.315	11.002
O	7.394	7.570	9.812
O	3.934	5.142	7.443
O	4.006	7.319	7.597
O	5.733	8.551	8.647
O	8.736	5.655	9.131
H	8.335	6.486	9.604
