84
Converted from 9650.nc, frame 13
  C     12.4029093      1.1531427      4.3138757
  C     11.7161417      3.2534876      5.1651535
  C     11.5915384      2.5838790      6.3988328
  C     12.4573679      1.4331481      6.6754150
  C     11.0772448      0.4570183      4.0351501
  H     10.6708860      0.7871031      3.0076170
  H     10.3834286      0.6086520      4.8939862
  H     11.1159096     -0.5848561      3.8775389
  C     13.3667450      0.7707734      3.1659510
  H     12.7959824      1.0432779      2.2070789
  H     13.4242458     -0.3204098      3.3302696
  H     14.2870550      1.3260003      3.3739386
  C     10.9093456      2.9726205      7.5102272
  H     11.2341356      2.6008489      8.4463997
  C      9.7802181      3.7391491      7.6385064
  C      9.1632681      3.6234322      8.8934593
  H      9.7558336      3.1623719      9.6597137
  C      7.9001002      4.0676856      9.2744694
  H      7.3840976      4.7890749      8.5668354
  C      7.2528176      3.6811674     10.4010382
  H      7.7468777      3.0928202     11.2103596
  C      4.9962964      4.4472551      9.8681622
  H      5.2948232      5.2795501      9.3777037
  H      4.1371098      4.7573829     10.4741240
  C      4.4387417      3.4881437      8.8922997
  H      5.0073075      3.5844815      8.0362940
  H      3.3445637      3.6562212      8.6798744
  H      4.4516144      2.4117684      9.1839714
  C      5.5278211      3.6828249     12.1580076
  H      4.5778518      4.1952829     12.3712940
  H      6.1673121      4.2545342     12.7649136
  C      5.4781675      2.2136495     12.3167295
  H      6.4572120      1.7851613     12.2047148
  H      4.8163805      1.7755196     11.5403318
  H      5.0852504      1.8639277     13.3284473
  N      5.9784598      3.9075627     10.7444859
  O     11.4743624      4.4266195      4.9981427
  O     12.7124844      1.0230093      7.7905321
  O     12.9818525      0.8654872      5.5728331
  O     12.2838230      2.5916891      4.1383085
  O      9.2093601      4.3123260      6.4581842
  H      9.8467684      4.4481807      5.7462683
  C      3.4750729      5.4462337     16.0329781
  C      5.9600034      4.8351707     15.7891417
  C      6.1664295      6.0864968     15.0737314
  C      5.0892515      7.0948825     15.1439447
  C      2.7711048      4.9945560     14.7466869
  H      1.8993524      5.6567616     14.6285114
  H      2.5503902      3.9532554     14.9376497
  H      3.4692349      5.0680056     13.9007978
  C      2.5611346      5.3342080     17.2862892
  H      2.8163373      6.0907125     18.0153618
  H      2.5527198      4.3093748     17.6356144
  H      1.4797498      5.3667984     16.8930340
  C      7.3347130      6.4702587     14.3123388
  H      7.2800455      7.5927744     14.1996145
  C      8.3836432      5.7318311     13.8299437
  C      9.0898399      6.2133226     12.7587357
  H      8.7825861      7.1707387     12.2925415
  C     10.1849813      5.5651379     12.2928801
  H     10.5308943      4.7073059     12.7492399
  C     11.0717201      6.1202650     11.2903023
  H     10.9558830      7.1472158     10.9724417
  C     12.5071888      4.1368861     10.9004097
  H     13.0893173      3.7680337     10.0174913
  H     11.5889292      3.5460918     10.9768934
  C     13.4151611      4.0609345     12.1661434
  H     12.7718077      4.3041801     13.1143379
  H     14.4039974      4.5556235     12.0530090
  H     13.5641804      3.0288625     12.4712811
  C     12.6708059      6.3689389      9.6534948
  H     13.7166891      5.9975471      9.5052567
  H     12.6149483      7.3797460     10.0796595
  C     12.0129719      6.2269363      8.3013105
  H     10.9003620      6.3193650      8.2881889
  H     12.3260422      5.3795462      7.7218671
  H     12.4227352      7.1734776      7.8275409
  N     12.0211420      5.4998841     10.6768284
  O      6.7888041      3.9614737     15.9961510
  O      5.2250772      8.2153568     14.6754618
  O      3.8452973      6.7610488     15.8070574
  O      4.6640086      4.5188270     16.2331886
  O      8.6652021      4.4441133     14.1332226
  H      8.1235714      4.1422668     14.8781662
