84
Converted from 15757.nc, frame 15
  C      6.0493813      9.9167194      7.8759618
  C      4.7465038      8.0843630      8.6233501
  C      5.8017192      7.2016635      8.3325300
  C      6.8010411      7.6697421      7.4559879
  C      5.8901706     11.2380705      7.2016535
  H      5.1834178     11.0571766      6.3078141
  H      6.7831354     11.4596386      6.7089872
  H      5.5015254     12.0958023      7.7850151
  C      6.7744927     10.1545944      9.2420988
  H      7.6492581     10.6852064      8.9360542
  H      7.2175345      9.2665510      9.6380529
  H      6.0946288     10.5781984      9.9897509
  C      5.8678846      5.8238645      8.6457930
  H      6.6474309      5.2947083      8.1107683
  C      5.1387115      5.1114759      9.6503220
  C      5.3053918      3.7111034      9.5507126
  H      5.8683867      3.2915807      8.6926889
  C      5.0923047      2.8514519     10.6169357
  H      4.6989346      3.1190548     11.6374025
  C      5.3668976      1.4581561     10.4226971
  H      5.7199264      1.1295545      9.4352226
  C      4.9530644      0.6291779     12.5729771
  H      5.4078021      1.5746961     12.7662249
  H      5.5432515     -0.0960328     13.1787834
  C      3.5153947      0.5544825     12.9298677
  H      3.3960686      0.5460311     14.0254307
  H      2.9990623     -0.2031437     12.3458939
  H      3.0851674      1.5279050     12.6201439
  C      5.4885941     -0.9267336     10.5789185
  H      5.3028793     -1.6122402     11.4323339
  H      6.5877614     -0.9069958     10.4346600
  C      4.7434578     -1.2983149      9.3589878
  H      3.6953344     -1.4322592      9.7315025
  H      5.0138016     -2.3117766      9.0669661
  H      4.7483344     -0.5672460      8.5458679
  N      5.2021265      0.4151236     11.1673698
  O      3.7779000      7.7832031      9.2241955
  O      7.6214871      6.9136229      7.0227957
  O      6.8234181      9.0512018      7.0519691
  O      4.7995687      9.3576469      8.1932383
  O      4.5968089      5.7436914     10.8274937
  H      4.1977015      6.6150322     10.6276073
  C      8.1715746      1.3570936     15.1791182
  C      8.3209705      0.6437914     12.8129292
  C      8.0099430      1.9580747     12.4526405
  C      7.2553468      2.8319018     13.4286737
  C      7.5737896      0.8107301     16.4569931
  H      6.6032810      0.4274368     16.1331215
  H      7.4038496      1.5473140     17.2394066
  H      8.1968040      0.0386461     16.8630104
  C      9.5813818      1.8735113     15.4107399
  H      9.6770000      2.7623603     16.0489426
  H     10.0274029      2.0436742     14.4622879
  H     10.1939898      1.0191110     15.8716354
  C      8.2538090      2.6218247     11.2446127
  H      7.9191895      3.6603937     11.0918112
  C      8.7449522      2.2249024     10.0230913
  C      8.5884447      3.0631464      8.9463587
  H      8.2363281      4.0674801      9.0705738
  C      8.9844151      2.9020932      7.5768619
  H      9.3408489      1.9625382      7.1220284
  C      8.8956146      4.0091882      6.7412853
  H      8.3612299      4.9023213      7.0819321
  C      9.9444008      2.8128905      4.8443718
  H     10.2269907      2.0200214      5.5154877
  H     10.8116655      3.2500196      4.4837751
  C      9.1765280      2.3765686      3.6862926
  H      9.5873594      1.4718385      3.2387459
  H      9.2492018      3.1153104      2.8537576
  H      8.0967388      2.2177949      3.7945099
  C      9.5092802      5.4059944      4.8263941
  H      8.8563824      6.1021590      5.3675380
  H      9.1556673      5.2802200      3.8007090
  C     10.9534178      5.8385940      4.8474784
  H     11.4113903      6.2827239      5.7710400
  H     11.0497274      6.5786967      4.0440969
  H     11.7353811      5.1188216      4.5038109
  N      9.3381395      4.0708489      5.4841113
  O      8.7984381     -0.1578369     11.9542866
  O      6.6900296      3.8065033     13.0905876
  O      7.2291160      2.3727586     14.7184010
  O      8.1821699      0.3023486     14.2033110
  O      9.2481775      1.0335374      9.7362680
  H      9.3271589      0.3551090     10.3877268
