84
Converted from 15757.nc, frame 17
  C      4.7702012      9.8876610      5.6221271
  C      5.2028251      7.4124279      5.4328156
  C      5.3876920      7.3654490      6.8368931
  C      5.7310171      8.6415215      7.4914379
  C      5.3460078     11.0095196      4.6804686
  H      4.6751676     11.0043669      3.7772446
  H      6.3241906     10.6938496      4.3426714
  H      5.2660847     12.0349321      5.1106386
  C      3.3788078     10.1880550      6.0637064
  H      3.1068988     11.1780252      6.3152976
  H      3.2411196      9.4053545      6.9000897
  H      2.6588764     10.0145302      5.2392321
  C      5.3620033      6.2872720      7.7550149
  H      5.5341215      6.5156865      8.8182077
  C      5.0918012      4.9909911      7.5651536
  C      4.9640813      4.1327486      8.7163877
  H      5.2980819      4.3906231      9.7060013
  C      4.5511866      2.8175957      8.4657202
  H      4.1243944      2.4982398      7.5569019
  C      4.7720904      1.7668791      9.4226208
  H      5.1228037      2.1213899     10.4397430
  C      4.3045993     -0.0547988      7.9965596
  H      5.3233376     -0.0836509      7.5944324
  H      3.7165024      0.7517118      7.4619193
  C      3.5642087     -1.4510145      7.9027381
  H      4.1385527     -2.2509067      8.3466568
  H      3.5637746     -1.7566118      6.8777270
  H      2.5239651     -1.4610637      8.3937922
  C      4.8184996     -0.3998737     10.4427347
  H      3.9835296     -1.1417472     10.5326586
  H      4.9836369      0.1459158     11.4095840
  C      6.2917085     -0.9391239     10.1242123
  H      6.5571060     -1.6591703     10.8192034
  H      7.0501156     -0.1842767     10.2340746
  H      6.4341912     -1.3366293      9.1046963
  N      4.4225769      0.5281444      9.3555937
  O      5.2787585      6.4000497      4.7699304
  O      6.2797756      8.5944262      8.5909233
  O      5.6581368      9.8507557      6.8011723
  O      4.8942118      8.6397848      4.8795648
  O      4.7793460      4.3866940      6.3558092
  H      5.0219574      5.0173502      5.6302266
  C      8.8167067      0.2232137     14.6015968
  C     10.3042927      0.9727989     12.8904009
  C      9.2929630      1.8121184     12.4077225
  C      7.9432006      1.7671142     12.9681158
  C      8.4454517     -1.0496676     15.3649168
  H      8.1695576     -1.8255855     14.6556139
  H      7.5657849     -1.0237166     16.0061550
  H      9.3633184     -1.5778596     15.7303400
  C      9.3679657      1.2810214     15.5851650
  H      8.5967274      1.5498232     16.3159199
  H      9.5612488      2.2653785     15.0993147
  H     10.2956219      1.1108596     16.0196342
  C      9.4212914      2.6429873     11.3056183
  H      8.5246649      3.2466462     11.2548008
  C     10.4605236      2.9804585     10.4263573
  C     10.0754614      3.9662461      9.5405569
  H      9.2253866      4.4324813      9.8560953
  C     10.7228308      4.3169665      8.3507223
  H     11.6572800      3.8803709      8.0312481
  C     10.0733709      5.2799692      7.5838270
  H      9.1360378      5.7323947      8.0547495
  C     11.4791489      5.1166282      5.6176205
  H     12.2104778      4.6698241      6.2704620
  H     11.9622202      5.9658561      5.1688552
  C     11.0347233      4.1160145      4.5809240
  H     10.5326376      3.2512693      4.9622321
  H     11.9902182      3.9345734      4.0428085
  H     10.4056921      4.5546799      3.8355610
  C      9.8365774      6.9315338      5.8161569
  H      8.7466621      6.9548821      6.1415462
  H      9.6995382      6.7766156      4.7428131
  C     10.7341452      8.1811047      6.1483235
  H     11.7171812      8.1302633      5.7352886
  H     10.8878441      8.1443863      7.2220783
  H     10.2978878      9.0705214      5.7481899
  N     10.4177790      5.7311335      6.3969607
  O     11.4527788      1.0833005     12.5575018
  O      6.9577265      2.4500184     12.6288395
  O      7.6910796      0.7305763     13.9161072
  O      9.9182129     -0.0452318     13.7404375
  O     11.6986990      2.2837846     10.2543898
  H     11.8221407      1.5396303     10.8230028
