84
Converted from 15757.nc, frame 21
  C      4.2644057      9.5716953      6.9371595
  C      5.3927321      7.4484725      7.5003862
  C      4.2462230      7.2839026      8.3570423
  C      3.5139849      8.3817606      8.8927317
  C      4.6297545     10.9588203      6.5010648
  H      3.8564813     11.7106018      6.7556872
  H      4.7614546     10.9316311      5.4328218
  H      5.5069566     11.3258848      7.1120772
  C      3.2946954      8.9564629      5.9407568
  H      2.5708404      9.6555862      5.5366883
  H      2.8209667      8.1753464      6.4422326
  H      3.9219687      8.4683952      5.1581426
  C      4.0899677      6.0520802      9.0575504
  H      3.3706999      6.1579323      9.8564825
  C      4.5033679      4.7274919      8.8102016
  C      4.1056399      3.8616476      9.7413092
  H      3.4523959      4.1010008     10.6492109
  C      4.3298378      2.5541782      9.5427122
  H      4.8442783      2.2024274      8.6791649
  C      4.0342975      1.7054325     10.5920677
  H      3.5383465      2.0269957     11.4929380
  C      5.0467520     -0.2781987      9.5922794
  H      5.4497375     -1.2060444      9.8498554
  H      5.8552737      0.3969801      9.4398603
  C      4.1828876     -0.5676414      8.4159145
  H      3.3787811      0.1995676      8.3325577
  H      3.5803289     -1.4815855      8.6488657
  H      4.7728887     -0.6934370      7.5088964
  C      4.0216160     -0.5490328     11.8479929
  H      3.3237095     -1.2488252     11.4057198
  H      3.2781007     -0.0481433     12.5492315
  C      5.1441083     -1.1664928     12.7260218
  H      4.6675653     -1.7177565     13.5295010
  H      5.6856914     -0.4126881     13.1502743
  H      5.8693466     -1.9265766     12.2503996
  N      4.4216585      0.4159698     10.7125273
  O      6.2967086      6.7960024      7.1271749
  O      2.9071932      8.3673525      9.9383831
  O      3.7046955      9.6409111      8.2651281
  O      5.4740081      8.7577782      7.0970893
  O      5.3776731      4.3312778      7.8332877
  H      5.9222951      5.0355444      7.4590516
  C      8.0920315      1.0865822     14.0288830
  C      8.1859064      0.9477446     11.6056461
  C      7.7059345      2.1999235     11.7494841
  C      6.9556551      2.6375716     12.8585415
  C      7.6996226     -0.0313109     14.9762497
  H      6.7807703     -0.4821766     14.7041302
  H      7.7875705      0.2365542     16.0123634
  H      8.4728355     -0.7979997     14.7502317
  C      9.3944826      1.8398979     14.3621778
  H      9.7109985      2.6030469     13.6626320
  H     10.0969515      1.0129675     14.5622673
  H      9.3285408      2.2599776     15.3940020
  C      7.9237533      3.1297350     10.7330341
  H      7.3918619      4.1601601     10.7017164
  C      8.8241968      3.2523274      9.6522808
  C      8.8055487      4.5370793      9.0496426
  H      8.0364141      5.3148313      9.2097759
  C      9.7385416      4.9360566      8.1281128
  H     10.4878359      4.2306190      7.8671694
  C      9.5334425      6.1941667      7.6433001
  H      8.6515074      6.7225356      8.0268316
  C     11.3702421      6.1281838      6.2034473
  H     11.6647654      5.4241734      7.0103273
  H     12.1636028      6.9435234      6.0741873
  C     11.2305918      5.2298341      4.9459157
  H     11.1987057      5.9070625      4.0808001
  H     10.2594652      4.7151537      4.9755335
  H     12.0506525      4.5836377      4.7283850
  C      9.7236414      8.1268597      6.0921440
  H      8.7227879      8.2851629      6.3935537
  H      9.7633314      7.9625101      5.0104685
  C     10.5548792      9.2762203      6.6898789
  H     11.5360899      9.2862568      6.2199335
  H     10.6356478      9.0487432      7.7645259
  H     10.1280184     10.3034401      6.6265006
  N     10.1971264      6.8577814      6.6436810
  O      8.6749468      0.3561541     10.6570454
  O      6.4174304      3.7109156     12.8430700
  O      6.8993011      1.8908515     13.9578018
  O      8.1785374      0.2381341     12.7545986
  O      9.7171183      2.2449377      9.2455063
  H      9.3513699      1.4811727      9.7250051
