84
converted from 22.pdb
C	8.015	-0.837	14.510
C	7.877	-0.290	12.196
C	6.671	0.434	12.528
C	5.993	0.098	13.709
C	8.438	-2.066	15.197
H	8.339	-2.997	14.702
H	7.888	-2.067	16.160
H	9.438	-1.851	15.387
C	8.620	0.360	15.187
H	9.676	0.190	15.207
H	8.295	0.314	16.239
H	8.332	1.331	14.771
C	5.967	1.304	11.629
H	4.946	1.599	11.921
C	6.405	1.868	10.402
C	5.587	2.653	9.531
H	4.566	2.946	9.913
C	5.809	3.082	8.196
H	6.768	2.755	7.867
C	4.825	3.729	7.471
H	3.800	3.840	7.760
C	6.309	4.346	5.632
H	7.171	4.051	6.385
H	6.587	5.267	5.072
C	6.342	3.342	4.385
H	5.507	3.469	3.715
H	6.210	2.243	4.677
H	7.307	3.484	3.888
C	3.797	5.141	5.663
H	3.011	4.500	5.867
H	3.971	5.274	4.569
C	3.409	6.333	6.408
H	2.741	6.971	5.826
H	4.219	6.953	6.496
H	3.027	6.219	7.436
N	4.984	4.383	6.254
O	8.340	-0.451	11.065
O	5.018	0.629	14.030
O	6.543	-0.908	14.527
O	8.527	-0.950	13.205
O	7.575	1.525	9.919
H	7.579	0.513	9.806
C	4.028	9.482	9.784
C	6.003	8.462	8.870
C	5.356	7.248	9.187
C	3.952	7.112	9.356
C	4.588	9.573	11.188
H	3.772	9.213	11.814
H	4.597	10.572	11.578
H	5.445	9.004	11.425
C	3.054	10.581	9.416
H	2.660	10.502	8.337
H	3.604	11.631	9.499
H	2.230	10.564	10.064
C	6.043	6.066	9.281
H	5.334	5.189	9.187
C	7.386	6.007	9.616
C	7.946	4.729	9.517
H	7.285	3.878	9.344
C	9.292	4.455	9.795
H	10.182	5.051	9.820
C	9.654	3.130	10.088
H	8.846	2.462	9.957
C	12.041	3.386	10.698
H	12.434	2.940	11.552
H	11.753	4.427	11.091
C	12.770	3.380	9.439
H	12.080	3.768	8.712
H	13.022	2.378	9.123
H	13.564	4.133	9.427
C	10.987	1.187	10.379
H	10.345	0.707	11.105
H	11.970	0.837	10.740
C	10.608	0.583	9.148
H	10.981	-0.452	9.237
H	11.292	1.009	8.314
H	9.475	0.616	8.813
N	10.782	2.589	10.537
O	7.121	8.591	8.403
O	3.356	6.042	9.273
O	3.264	8.339	9.599
O	5.216	9.579	8.890
O	8.190	6.985	9.953
H	7.947	7.633	9.240
