84
Converted from 15757.nc, frame 22
  C      4.8995662      9.8682842      5.7665186
  C      5.5977001      7.6448169      5.1709156
  C      5.7699981      7.4564691      6.5555325
  C      5.9091072      8.5408049      7.4023976
  C      4.8387899     11.3207273      5.2711034
  H      5.8141026     11.7055902      5.0110106
  H      4.4985309     12.0033474      6.0549421
  H      4.3186617     11.5143156      4.3069119
  C      3.4451439      9.3625050      6.0780511
  H      2.9462192     10.0802212      6.7675486
  H      3.3744886      8.3265600      6.4682097
  H      2.7448938      9.5195665      5.1670861
  C      5.9319277      6.1787148      7.1278801
  H      6.2072105      6.3395524      8.1777391
  C      5.8244004      4.8830700      6.7900767
  C      5.7801700      4.0439930      7.9555993
  H      5.7945018      4.6175694      8.8998003
  C      5.6936598      2.6843221      7.8681464
  H      5.6930289      2.2712669      6.8959861
  C      5.7612791      1.8152018      8.9566545
  H      5.8252554      2.2587340     10.0245285
  C      5.3457298     -0.2176441      7.8431988
  H      5.7383623     -1.2000966      7.9435606
  H      5.8033009      0.2623732      6.9852104
  C      3.7800632     -0.3074760      7.7086945
  H      3.2039654      0.6856714      7.7332120
  H      3.4208779     -0.9889224      8.4295406
  H      3.3916433     -0.8675451      6.8372693
  C      5.7632518     -0.1858947     10.3092394
  H      4.7268066     -0.5677459     10.3515663
  H      5.9963183      0.4874350     11.1546679
  C      6.7508812     -1.3021930     10.4608002
  H      6.6730318     -1.8835081     11.3954210
  H      7.7590089     -1.0398592     10.2331448
  H      6.5434422     -2.2193222      9.8124151
  N      5.7835422      0.4749931      9.0099440
  O      5.6334276      6.7962036      4.3483176
  O      6.3805022      8.3202715      8.5536423
  O      5.7761593      9.8250523      6.8890758
  O      5.4724112      9.0060911      4.7588406
  O      5.5959024      4.4938512      5.4927549
  H      5.5604043      5.3084760      4.9021926
  C      8.0716610      0.8653811     14.1215258
  C      8.5673323      1.2825011     11.8979530
  C      7.8583779      2.4854100     12.0633764
  C      6.9285221      2.6650999     13.1057043
  C      7.6126180     -0.4094456     14.7935362
  H      7.0645123     -0.9656370     14.0671301
  H      7.0268273     -0.2294940     15.6707335
  H      8.4357395     -1.0600828     15.0731564
  C      9.1582670      1.6370516     14.7747240
  H      9.4705505      2.5781815     14.3422623
  H     10.0274973      1.0520480     14.9194527
  H      8.7104445      2.0116036     15.7862520
  C      8.0019970      3.6215525     11.2407694
  H      7.2848487      4.4288001     11.4937525
  C      8.9261560      3.9803977     10.3255482
  C      8.8430605      5.2450175      9.7668934
  H      8.0064974      5.8398457     10.2186871
  C      9.6409225      5.8006573      8.7434654
  H     10.3918076      5.1322641      8.3236551
  C      9.4718008      7.0982585      8.3856554
  H      8.7769680      7.7073174      9.0033579
  C     11.1273050      6.9337707      6.5939350
  H     11.5117817      6.0631976      7.0243535
  H     11.9895496      7.5142026      6.0630150
  C     10.2528114      6.3755217      5.4106536
  H      9.6637344      7.1154528      4.9300561
  H      9.6292248      5.5590391      5.9274182
  H     10.8135424      5.8891749      4.6213055
  C      9.7150755      8.9671535      7.0500450
  H      9.0525980      9.3474445      7.8318682
  H      9.1243210      8.8020592      6.1481204
  C     10.7248878     10.1242237      6.8609447
  H     11.4501829      9.8078947      6.1171131
  H     11.3598623     10.2846041      7.7651129
  H     10.2648039     11.0568914      6.5108390
  N     10.2217474      7.7357707      7.5166063
  O      9.2103424      0.9468518     10.9160614
  O      6.1194396      3.5349655     13.1581354
  O      6.9043989      1.6639833     14.0637121
  O      8.4979000      0.3845484     12.8716764
  O      9.9311991      3.1903427      9.8268356
  H      9.5959949      2.2815301      9.9901772
