84
converted from 24.pdb
C	9.430	-0.222	14.243
C	8.104	-0.437	12.121
C	7.299	0.677	12.594
C	7.224	0.902	14.066
C	10.156	-1.227	15.227
H	9.565	-2.058	15.406
H	10.189	-0.648	16.205
H	11.150	-1.524	14.955
C	10.275	0.980	13.805
H	11.047	0.754	13.048
H	10.890	1.436	14.565
H	9.729	1.795	13.422
C	6.203	1.193	11.870
H	5.398	1.573	12.531
C	6.044	1.195	10.478
C	4.916	1.788	10.006
H	4.038	2.056	10.521
C	4.794	1.793	8.600
H	5.557	1.239	8.178
C	3.831	2.494	7.833
H	3.084	3.065	8.387
C	5.007	1.972	5.756
H	5.826	1.616	6.407
H	5.502	2.770	5.304
C	4.559	0.920	4.696
H	5.114	1.194	3.748
H	3.444	0.714	4.532
H	5.071	0.019	5.045
C	2.972	3.432	5.887
H	1.931	3.268	6.291
H	2.851	3.181	4.848
C	3.412	4.854	5.992
H	2.839	5.411	5.264
H	4.370	5.084	5.578
H	3.236	5.287	6.964
N	3.876	2.524	6.488
O	8.099	-1.038	11.055
O	6.337	1.487	14.675
O	8.125	0.051	14.764
O	9.096	-0.935	12.981
O	6.982	0.761	9.557
H	7.063	-0.265	9.462
C	3.733	8.630	8.746
C	5.771	7.734	9.675
C	5.138	6.418	9.594
C	3.665	6.345	9.483
C	3.028	9.928	8.910
H	3.020	10.186	10.008
H	2.029	9.845	8.565
H	3.547	10.692	8.303
C	3.951	8.411	7.281
H	4.549	7.600	7.038
H	4.552	9.189	6.813
H	2.935	8.114	6.883
C	5.863	5.208	9.753
H	5.232	4.312	10.095
C	7.196	4.915	9.464
C	7.590	3.599	9.682
H	6.829	2.877	9.990
C	8.909	3.099	9.386
H	9.732	3.698	8.943
C	9.210	1.851	9.695
H	8.521	1.155	10.079
C	11.722	2.134	9.154
H	11.382	3.207	8.963
H	11.998	1.825	8.128
C	12.950	2.195	10.100
H	13.419	1.166	10.479
H	12.688	2.855	10.995
H	13.863	2.521	9.649
C	10.808	0.045	10.191
H	10.368	-0.147	11.105
H	11.904	0.066	10.193
C	10.387	-1.070	9.115
H	10.499	-0.684	8.065
H	9.403	-1.325	9.158
H	11.077	-1.911	9.208
N	10.480	1.385	9.708
O	6.774	7.957	10.327
O	2.997	5.306	9.409
O	3.050	7.546	9.280
O	5.036	8.847	9.420
O	8.039	5.892	8.938
H	8.294	6.312	9.748
