84
Converted from 15757.nc, frame 3
  C      5.7758584     10.3835821      6.4294314
  C      5.7362652      8.7711506      8.2335482
  C      6.5326610      7.9487581      7.3893023
  C      7.3315959      8.5204420      6.3589382
  C      4.6426253     10.0397577      5.5096531
  H      3.7311277     10.3628025      5.9911809
  H      4.6233788      8.9819384      5.3837700
  H      4.7586942     10.5317764      4.5210333
  C      6.0870357     11.8800135      6.5424795
  H      6.3810205     12.3924694      5.5668173
  H      6.9186187     11.9376831      7.2263727
  H      5.2313356     12.5346937      6.9150729
  C      6.7435703      6.6447206      7.6593528
  H      7.5039854      6.1961098      6.9902377
  C      6.3100147      5.8285637      8.6652565
  C      6.8228335      4.5657558      8.5188322
  H      7.5344052      4.4118481      7.6898513
  C      6.5318260      3.4213939      9.3351059
  H      5.6704955      3.4728570     10.0209875
  C      7.2366791      2.2249484      9.1797895
  H      8.1696167      2.2400413      8.5569878
  C      5.8515048      0.9236987     10.5862427
  H      5.7879763      1.7442701     11.3289385
  H      5.9460368      0.0193245     11.0977488
  C      4.5678344      0.7447444      9.7980022
  H      4.3979197      1.4258547      8.8801079
  H      3.8008039      0.8717827     10.5281401
  H      4.4511776     -0.3840041      9.6688805
  C      7.9935884     -0.0338988      9.6277475
  H      8.3306465     -0.0924364     10.6795454
  H      8.8035088      0.2479180      8.9374685
  C      7.2894650     -1.3022248      9.1114569
  H      7.0067096     -1.1381813      8.0664492
  H      6.4219270     -1.5747147      9.7810764
  H      8.0803728     -2.0806668      9.0837507
  N      7.0442252      1.0939620      9.7748222
  O      5.3184028      8.4403334      9.3196898
  O      8.3343496      8.0253525      5.9327726
  O      6.9474258      9.7711945      5.9717212
  O      5.4034963      9.9676971      7.8105588
  O      5.4592752      5.9577231      9.7616577
  H      5.0832562      6.8150549      9.6492386
  C      9.2292557     -0.7603344     13.4120026
  C     10.1622257      1.2420321     12.4590302
  C      8.9931450      1.8884934     13.0826159
  C      7.7939191      1.1142350     13.3253527
  C      9.3281860     -2.1933157     12.9981947
  H      8.5904255     -2.7506683     13.6300039
  H     10.3758411     -2.4899216     13.2990131
  H      9.1270409     -2.3578992     11.9216967
  C      9.6507521     -0.5148221     14.8282623
  H      9.1897383     -1.1702799     15.5721312
  H      9.4430151      0.4642090     15.2086573
  H     10.7439766     -0.6187764     14.7723026
  C      8.8484383      3.2495201     13.0862923
  H      7.9815969      3.5772438     13.6663179
  C      9.5485430      4.3351393     12.5509119
  C      8.8449211      5.4992824     12.4140863
  H      7.8833523      5.6584015     12.8374386
  C      9.3764114      6.6315017     11.7539730
  H     10.3838739      6.6100259     11.3526821
  C      8.6567965      7.8538203     11.6881151
  H      7.6926107      7.8549209     12.1751938
  C     10.1469860      8.7221832     10.1471577
  H     10.9872141      8.1767311     10.7155294
  H     10.4834290      9.7298670      9.8496208
  C      9.9108725      7.9391360      8.8446789
  H      9.5065498      6.8885927      8.9582787
  H     10.8805466      7.7198410      8.3750553
  H      9.4348812      8.5122728      8.1532393
  C      7.9708447      9.9011650     10.7874985
  H      7.0776386      9.6748161     11.3546896
  H      7.7842450     10.0901518      9.7305880
  C      8.3087368     11.3080091     11.3034849
  H      8.4179192     11.3786821     12.4453726
  H      7.3604527     11.9436169     11.1703949
  H      9.2435112     11.6592169     10.8206501
  N      8.9930706      8.8922739     10.9436073
  O     11.0033159      1.8552841     11.8348026
  O      6.7342992      1.6697152     13.5651941
  O      7.8727922     -0.2567012     13.3661585
  O     10.1148481     -0.1548679     12.4933128
  O     10.8042860      4.3534684     11.9052067
  H     10.9373589      3.3991444     11.7841606
