 293
Type            X            Y            Z                  ESP  Atom ID
   O   -0.6100001    1.0670003    2.4200000       0.250512590097        1
   O    0.3699992    1.0670003    2.1574103       0.239399769834        1
   O   -1.4028378    0.4909735    2.1574103       0.248133983613        1
   O   -0.3071675    0.1349643    2.1574103       0.257731993232        1
   O    1.0874089    1.0670003    1.4400014       0.230375617252        1
   O    0.7632332    2.0647116    1.4400014       0.235394004752        1
   O   -2.3074092    1.0670045    1.4400014       0.245038539440        1
   O   -1.9832358    0.0692924    1.4400014       0.239386693976        1
   O    1.3499999    1.0670003    0.4600025       0.231517641255        1
   O    1.0874102    2.0469996    0.4600025       0.227235424079        1
   O   -2.5700001    1.0670052    0.4600025       0.233060216898        1
   O   -2.3074127    0.0870052    0.4600025       0.228117427690        1
   O    1.0874112    1.0670003   -0.5199972       0.240493818797        1
   O    0.7632351    2.0647128   -0.5199972       0.235992626760        1
   O   -2.3074115    1.0670045   -0.5199972       0.228853404744        1
   O   -1.9832376    0.0692911   -0.5199972       0.233067613898        1
   O    0.3700037    1.0670003   -1.2374076       0.247435376203        1
   O   -0.1199975    1.9157080   -1.2374076       0.246712503161        1
   O   -1.1000005    1.9157091   -1.2374076       0.251046527422        1
   O   -1.5900038    1.0670028   -1.2374076       0.235563729668        1
   O   -1.1000047    0.2182938   -1.2374076       0.250771889955        1
   O   -0.6099951    1.0670003   -1.5000000       0.245083729201        1
   H    0.6714789    0.1760001    1.7121491       0.254843223355        2
   H   -1.1148885   -0.4044228    1.7121491       0.261360675785        2
   H   -0.0108560   -0.7631492    1.7121491       0.249154459818        2
   H    1.2817749    0.1760001    0.8721502       0.244883191747        2
   H   -1.1148915   -1.2077106    0.8721502       0.244206118912        2
   H   -0.0385552   -1.3975017    0.8721502       0.241587545435        2
   H    0.9079620   -0.8510351    0.8721502       0.241677718211        2
   H    1.2817761    0.1760001   -0.1661464       0.245676893682        2
   H   -1.8174195   -0.3704672   -0.1661464       0.246782273455        2
   H   -1.1148922   -1.2077118   -0.1661464       0.241596447257        2
   H   -0.0385549   -1.3975030   -0.1661464       0.240272000126        2
   H    0.9079630   -0.8510359   -0.1661464       0.241096181225        2
   H    0.6714823    0.1760001   -1.0061468       0.252582722013        2
   H   -1.1148914   -0.4044249   -1.0061468       0.248783132134        2
   H   -0.0108549   -0.7631525   -1.0061468       0.244377567618        2
   H   -0.3159955    0.1760001   -1.3270004       0.259674743979        2
   H   -0.9200001    1.9650002    2.3099999       0.259829743624        3
   H   -0.6148514    2.9041479    1.9891491       0.246284632267        3
   H   -1.7188859    2.5454271    1.9891491       0.247553479270        3
   H    0.3039668    2.9920291    1.1491501       0.244743826935        3
   H   -0.6425477    3.5385007    1.1491501       0.242126726680        3
   H   -1.7188851    3.3487149    1.1491501       0.241927615936        3
   H   -2.4214158    2.5114746    1.1491501       0.244072145576        3
   H   -2.4214186    1.4185333    1.1491501       0.253055707024        3
   H    0.3039678    2.9920299    0.1108536       0.248348452360        3
   H   -0.6425475    3.5385019    0.1108536       0.243801664167        3
   H   -1.7188857    3.3487159    0.1108536       0.242749751057        3
   H   -2.4214170    2.5114751    0.1108536       0.243998435685        3
   H   -0.6148503    2.9041512   -0.7291468       0.253491644270        3
   H   -1.7188886    2.5454293   -0.7291468       0.250840978297        3
   O   -0.6100001    1.0670003    2.7000000       0.222833438444        1
   O    0.3618988    1.0670003    2.4781707       0.216267710493        1
   O   -0.1240500    1.9086890    2.4781707       0.227117737509        1
   O   -1.5818990    1.0670028    2.4781707       0.225308968378        1
   O   -1.0959523    0.2253127    2.4781707       0.223144452896        1
   O   -0.1240543    0.2253091    2.4781707       0.224824221784        1
   O    1.1413014    1.0670003    1.8566182       0.210156899168        1
   O    0.8068330    2.0963886    1.8566182       0.214536270317        1
   O   -2.3613014    1.0670047    1.8566182       0.221842140045        1
   O   -2.0268356    0.0376154    1.8566182       0.216994886030        1
   O    1.5738377    1.0670003    0.9584493       0.208592027583        1
   O    1.3236928    2.0818794    0.9584493       0.206087856387        1
   O   -2.7303809    0.5443793    0.9584493       0.208339198726        1
   O   -2.2446309   -0.3811468    0.9584493       0.215540972564        1
   O    1.5738390    1.0670003   -0.0384438       0.212139428935        1
   O    1.3236938    2.0818801   -0.0384438       0.207020195094        1
   O   -2.7303794    1.5896322   -0.0384438       0.219975541074        1
   O   -2.7303819    0.5443791   -0.0384438       0.204004164880        1
   O   -2.2446317   -0.3811477   -0.0384438       0.214229181826        1
   O    1.1413049    1.0670003   -0.9366141       0.217503928805        1
   O    0.8068359    2.0963908   -0.9366141       0.213716662011        1
   O   -0.0688154    2.7325896   -0.9366141       0.231189588158        1
   O   -2.0268334    2.0963943   -0.9366141       0.228311361389        1
   O   -2.3613049    1.0670047   -0.9366141       0.208285701409        1
   O   -2.0268387    0.0376134   -0.9366141       0.211847772894        1
   O    0.3619039    1.0670003   -1.5581679       0.220285081956        1
   O   -0.1240473    1.9086936   -1.5581679       0.218992874903        1
   O   -1.0959507    1.9086946   -1.5581679       0.220892797044        1
   O   -1.5819040    1.0670028   -1.5581679       0.212785898013        1
   O   -1.0959548    0.2253083   -1.5581679       0.222025637779        1
   O   -0.1240517    0.2253045   -1.5581679       0.232560764622        1
   O   -0.6099944    1.0670003   -1.7799998       0.218227532855        1
   H   -0.0193475   -0.7370147    2.0157691       0.224938532919        2
   H    1.3467684    0.1760001    1.3130013       0.222013084689        2
   H   -1.6612104   -0.8013464    1.3130013       0.226123862567        2
   H   -0.8298289   -1.4053846    1.3130013       0.218691045898        2
   H    0.1978172   -1.4053885    1.3130013       0.216428559786        2
   H    1.0292035   -0.8013563    1.3130013       0.217220942157        2
   H    1.6040003    0.1760001    0.3530023       0.219237755797        2
   H   -1.9787713   -0.7839951    0.3530023       0.221373498711        2
   H   -1.2760052   -1.4867656    0.3530023       0.216060845084        2
   H   -0.3160071   -1.7439999    0.3530023       0.213965130289        2
   H    0.6439929   -1.4867729    0.3530023       0.213663492097        2
   H    1.3467648   -0.7840073    0.3530023       0.215042647486        2
   H    1.3467706    0.1760001   -0.6069974       0.221805394088        2
   H   -1.6612121   -0.8013477   -0.6069974       0.219521049597        2
   H   -0.8298296   -1.4053867   -0.6069974       0.215266866289        2
   H    0.1978179   -1.4053906   -0.6069974       0.214339234116        2
   H    1.0292056   -0.8013576   -0.6069974       0.215930051924        2
   H    0.6440039    0.1760001   -1.3097669       0.227257761989        2
   H   -0.7960043   -0.6553859   -1.3097669       0.221125221453        2
   H    0.1639984   -0.6553896   -1.3097669       0.219624961607        2
   H   -0.9200001    1.9650002    2.5499998       0.232704640945        3
   H   -0.6233430    2.8780134    2.2927692       0.221090930392        3
   H   -1.6966547    2.5292753    2.2927692       0.222119326025        3
   H    0.4252081    2.9423499    1.5900012       0.220576441106        3
   H   -0.4061748    3.5463860    1.5900012       0.216438682394        3
   H   -1.4338213    3.5463873    1.5900012       0.215549445438        3
   H   -2.2652055    2.9423534    1.5900012       0.217072570203        3
   H   -2.5827681    1.9650043    1.5900012       0.222760744112        3
   H    0.7427692    2.9249996    0.6300022       0.222135129460        3
   H    0.0400013    3.6277682    0.6300022       0.217130070969        3
   H   -0.9199976    3.8850003    0.6300022       0.215161593410        3
   H   -1.8799974    3.6277707    0.6300022       0.214881015385        3
   H   -2.5827668    2.9250039    0.6300022       0.216196828219        3
   H   -2.8400002    1.9650051    0.6300022       0.220264713338        3
   H    0.4252099    2.9423514   -0.3299975       0.226834404096        3
   H   -0.4061741    3.5463883   -0.3299975       0.219722176673        3
   H   -1.4338221    3.5463896   -0.3299975       0.217538003536        3
   H   -2.2652075    2.9423549   -0.3299975       0.218245169658        3
   H   -2.5827706    1.9650043   -0.3299975       0.222725120807        3
   H   -0.4399975    2.7963873   -1.0327670       0.231207940823        3
   H   -1.4000006    2.7963885   -1.0327670       0.225823907710        3
   O   -0.6100001    1.0670003    2.9799997       0.200510598817        1
   O    0.4833860    1.0670003    2.7304417       0.195738086350        1
   O   -0.0633062    2.0139000    2.7304417       0.203996919676        1
   O   -1.7033862    1.0670030    2.7304417       0.202439501487        1
   O   -1.1566961    0.1201019    2.7304417       0.200676096080        1
   O   -0.0633111    0.1200977    2.7304417       0.202008160919        1
   O    1.3602137    1.0670003    2.0311954       0.191393113927        1
   O    1.0474498    2.1321777    2.0311954       0.193537801914        1
   O   -2.5004081    0.5119323    2.0311954       0.195671511320        1
   O   -1.9002208   -0.4219837    2.0311954       0.199829429451        1
   O    1.0474445    0.0018149    2.0311954       0.204984823042        1
   O    1.8468174    1.0670003    1.0207554       0.190307290955        1
   O    1.6035164    2.1329728    1.0207554       0.187938523719        1
   O   -3.0668174    1.0670064    1.0207554       0.194925972230        1
   O   -2.8235190    0.0010334    1.0207554       0.190005467967        1
   O   -2.1418066   -0.8538122    1.0207554       0.201804533021        1
   O    1.8468186    1.0670003   -0.1007492       0.192778453836        1
   O    1.6035177    2.1329733   -0.1007492       0.188549906581        1
   O    0.9218027    2.9878175   -0.1007492       0.200553053639        1
   O   -3.0668186    1.0670064   -0.1007492       0.190527976921        1
   O   -2.8235202    0.0010328   -0.1007492       0.187696704065        1
   O    1.3602178    1.0670003   -1.1111907       0.196431766537        1
   O    1.0474531    2.1321797   -1.1111907       0.192988615972        1
   O    0.2084596    2.8591726   -1.1111907       0.203745910356        1
   O   -2.5004089    1.6220789   -1.1111907       0.195230334560        1
   O   -2.5004119    0.5119312   -1.1111907       0.188346447883        1
   O   -1.9002233   -0.4219868   -1.1111907       0.198785448850        1
   O    0.4833919    1.0670003   -1.8104388       0.198198817058        1
   O   -0.0633033    2.0139052   -1.8104388       0.197202332000        1
   O   -1.1566945    2.0139064   -1.8104388       0.198789845530        1
   O   -1.7033920    1.0670030   -1.8104388       0.192782549116        1
   O   -1.1566991    0.1200969   -1.8104388       0.199758145215        1
   O   -0.0633082    0.1200926   -1.8104388       0.207472972765        1
   O   -0.6099937    1.0670003   -2.0599995       0.196599265453        1
   H   -0.8560024   -0.7593049    2.2236152       0.208574221648        2
   H    0.2239957   -0.7593090    2.2236152       0.203602895744        2
   H    1.5546142    0.1760001    1.4330014       0.202063184243        2
   H   -1.5409960   -1.2377115    1.4330014       0.201703417491        2
   H   -0.5822225   -1.6755729    1.4330014       0.196723956211        2
   H    0.4610742   -1.5255735    1.4330014       0.195376676790        2
   H    1.2576564   -0.8353371    1.4330014       0.196764539115        2
   H    1.8440002    0.1760001    0.3530026       0.199266671281        2
   H   -1.9327876   -1.2563396    0.3530026       0.198582973538        2
   H   -1.0819534   -1.8436323    0.3530026       0.194428701845        2
   H   -0.0556486   -1.9682521    0.3530026       0.192802692779        2
   H    0.9110122   -1.6016506    0.3530026       0.192835332118        2
   H    1.5965805   -0.8278111    0.3530026       0.194609150905        2
   H    1.5546169    0.1760001   -0.7269971       0.201223011430        2
   H   -1.5409978   -1.2377134   -0.7269971       0.197038099197        2
   H   -0.5822229   -1.6755755   -0.7269971       0.193925186950        2
   H    0.4610753   -1.5255759   -0.7269971       0.193461453233        2
   H    1.2576586   -0.8353385   -0.7269971       0.195380258960        2
   H    0.7640044    0.1760001   -1.5176126       0.205895015193        2
   H   -0.8560049   -0.7593091   -1.5176126       0.200265974991        2
   H    0.2239982   -0.7593132   -1.5176126       0.198541108348        2
   H   -0.3799997    2.9003064    2.5006150       0.200985591659        3
   H   -1.4599982    2.9003079    2.5006150       0.199271088996        3
   H   -1.9999993    1.9650030    2.5006150       0.206267340982        3
   H    0.6536610    2.9763298    1.7100013       0.201017747451        3
   H   -0.1429174    3.6665697    1.7100013       0.196007585337        3
   H   -1.1862136    3.8165746    1.7100013       0.194408839477        3
   H   -2.1449893    3.3787181    1.7100013       0.195042687796        3
   H   -2.7148398    2.4920171    1.7100013       0.198458613195        3
   H    0.3070212    3.7426443    0.6300025       0.196939671588        3
   H   -0.6596382    4.1092513    0.6300025       0.194361060737        3
   H   -1.6859434    3.9846364    0.6300025       0.193642870407        3
   H   -2.5367807    3.3973483    0.6300025       0.194446691815        3
   H   -3.0172332    2.4819271    0.6300025       0.197324470588        3
   H   -0.1429163    3.6665722   -0.4499972       0.199450755459        3
   H   -1.1862140    3.8165772   -0.4499972       0.196631583714        3
   H   -2.1449911    3.3787201   -0.4499972       0.196609519308        3
   H   -2.7148424    2.4920179   -0.4499972       0.199486910269        3
   H   -1.4600006    2.9003120   -1.2406127       0.204440409328        3
   O   -0.6100001    1.0670003    3.2600003       0.182108902089        1
   O    0.4615128    1.0670003    3.0468633       0.179007900850        1
   O   -0.0742429    1.9949572    3.0468633       0.184435272614        1
   O   -1.1457550    1.9949585    3.0468633       0.189985225156        1
   O   -1.6815128    1.0670030    3.0468633       0.183606779385        1
   O   -1.1457596    0.1390446    3.0468633       0.182017562902        1
   O   -0.0742477    0.1390405    3.0468633       0.182502264297        1
   O    1.3698980    1.0670003    2.4399003       0.175943864654        1
   O    1.1046422    2.0569486    2.4399003       0.177218643677        1
   O   -2.5898980    1.0670053    2.4399003       0.182646880710        1
   O   -2.3246447    0.0770562    2.4399003       0.179209062552        1
   O   -1.5999545   -0.6476384    2.4399003       0.184056514295        1
   O    1.1046374    0.0770436    2.4399003       0.183054145270        1
   O    1.9768616    1.0670003    1.5315162       0.174463023660        1
   O    1.7532163    2.1191707    1.5315162       0.173111628710        1
   O    1.1209496    2.9894117    1.5315162       0.182399739130        1
   O   -3.1403313    1.6048450    1.5315162       0.185582061378        1
   O   -3.1403341    0.5291684    1.5315162       0.176249707816        1
   O   -2.7028195   -0.4535127    1.5315162       0.177259751619        1
   O    2.1900002    1.0670003    0.4600036       0.175142611959        1
   O    2.0009227    2.0784763    0.4600036       0.171948226595        1
   O    1.4592260    2.9533470    0.4600036       0.178081924161        1
   O   -3.3623237    1.5815056    0.4600036       0.181450504281        1
   O   -3.3623262    0.5525089    0.4600036       0.173182982345        1
   O   -2.9906125   -0.4070028    0.4600036       0.174290117053        1
   O    1.9768647    1.0670003   -0.6115095       0.177272292721        1
   O    1.7532188    2.1191720   -0.6115095       0.173725727021        1
   O    1.1209516    2.9894140   -0.6115095       0.179803920592        1
   O   -3.1403344    1.6048455   -0.6115095       0.178556603508        1
   O   -3.1403369    0.5291678   -0.6115095       0.171938799899        1
   O   -2.7028220   -0.4535143   -0.6115095       0.175407426574        1
   O    1.3699027    1.0670003   -1.5198953       0.179346842603        1
   O    1.1046467    2.0569511   -1.5198953       0.176589682454        1
   O    0.3799528    2.7816456   -1.5198953       0.181565114439        1
   O   -0.6099975    3.0469031   -1.5198953       0.188516985754        1
   O   -2.3246439    2.0569554   -1.5198953       0.181293625064        1
   O   -2.5899030    1.0670053   -1.5198953       0.174297386951        1
   O   -2.3246490    0.0770537   -1.5198953       0.175117388751        1
   O   -1.5999570   -0.6476427   -1.5198953       0.184788317551        1
   O    0.4615193    1.0670003   -2.1268603       0.180000059697        1
   O   -0.0742396    1.9949629   -2.1268603       0.179027514578        1
   O   -1.1457583    1.9949642   -2.1268603       0.179767981914        1
   O   -1.6815194    1.0670030   -2.1268603       0.176359778515        1
   O   -1.1457628    0.1390389   -2.1268603       0.180880150465        1
   O   -0.0742444    0.1390348   -2.1268603       0.185574008576        1
   O   -0.6099929    1.0670003   -2.3400001       0.178770238636        1
   H    0.2046565   -0.7258121    2.5153260       0.187978718768        2
   H   -1.5447818   -1.2420803    1.8493769       0.186625806687        2
   H   -0.5830451   -1.6812948    1.8493769       0.181327692455        2
   H    0.4634756   -1.5308320    1.8493769       0.179892498763        2
   H    1.2625195   -0.8384624    1.8493769       0.181485568777        2
   H    2.0238270    0.1760001    0.8870528       0.183388614370        2
   H   -1.7748637   -1.6533456    0.8870528       0.181235168057        2
   H   -0.8366680   -2.1051605    0.8870528       0.177753991257        2
   H    0.2046511   -2.1051646    0.8870528       0.176419718849        2
   H    1.1428502   -1.6533567    0.8870528       0.176666267080        2
   H    1.7921066   -0.8392227    0.8870528       0.178648396249        2
   H    2.0238282    0.1760001   -0.1810472       0.183028177646        2
   H   -1.7748643   -1.6533466   -0.1810472       0.179497755765        2
   H   -0.8366683   -2.1051618   -0.1810472       0.176605378397        2
   H    0.2046514   -2.1051658   -0.1810472       0.175585115239        2
   H    1.1428509   -1.6533577   -0.1810472       0.176018739392        2
   H    1.7921078   -0.8392233   -0.1810472       0.178139381013        2
   H    1.5603988    0.1760001   -1.1433728       0.185282740773        2
   H   -1.5447842   -1.2420832   -1.1433728       0.181104439854        2
   H   -0.5830457   -1.6812985   -1.1433728       0.177824030238        2
   H    0.4634772   -1.5308353   -1.1433728       0.177336460439        2
   H    1.2625226   -0.8384644   -1.1433728       0.179382454276        2
   H   -0.8366657   -0.7258129   -1.8093236       0.184206243093        2
   H    0.2046593   -0.7258169   -1.8093236       0.182466922813        2
   H   -0.3993391    2.8668097    2.7923258       0.184738135243        3
   H   -1.4406587    2.8668109    2.7923258       0.183012474300        3
   H   -1.9613206    1.9650028    2.7923258       0.189255251715        3
   H    0.6585241    2.9794552    2.1263768       0.184985537524        3
   H   -0.1405160    3.6718283    2.1263768       0.179791836492        3
   H   -1.1870362    3.8222965    2.1263768       0.178076767559        3
   H   -2.1487748    3.3830870    2.1263768       0.178764363330        3
   H   -2.7203866    2.4936456    2.1263768       0.182322637637        3
   H    0.5388593    3.7943493    1.1640527       0.180221780229        3
   H   -0.3993371    4.2461622    1.1640527       0.177430349029        3
   H   -1.4406574    4.2461633    1.1640527       0.176448396444        3
   H   -2.3788551    3.7943531    1.1640527       0.176866744140        3
   H   -3.0281087    2.9802177    1.1640527       0.178921225616        3
   H   -3.2598267    1.9650061    1.1640527       0.183695582115        3
   H    0.5388601    3.7943503    0.0959527       0.181894332390        3
   H   -0.3993368    4.2461633    0.0959527       0.178545451177        3
   H   -1.4406576    4.2461648    0.0959527       0.177258681049        3
   H   -2.3788561    3.7943541    0.0959527       0.177489297707        3
   H   -3.0281100    2.9802183    0.0959527       0.179393847831        3
   H   -3.2598282    1.9650061    0.0959527       0.183982039817        3
   H   -0.1405144    3.6718316   -0.8663728       0.184065488195        3
   H   -1.1870368    3.8223000   -0.8663728       0.180999833133        3
   H   -2.1487773    3.3830895   -0.8663728       0.181026713677        3
   H   -2.7203901    2.4936467   -0.8663728       0.184269550114        3
   H   -1.4406616    2.8668157   -1.5323237       0.188687256999        3
