6
Written by ff_opt active learning
  O      0.6840000     -1.7170000     -2.0850000
  H      0.3970000     -1.1190000     -1.4460000
  H      1.1780000     -2.1830001     -2.8039999
  O     -0.6100000      1.0670000      0.4600000
  H     -0.3160000      0.1760000      0.3530000
  H     -0.9200000      1.9650000      0.6300000
