48
Conf 1.
C          12.73799992     1.39900005     6.68200016
C          10.37800026     0.90700001     6.85500002
C          10.45600033     1.22399998     8.24800014
C          11.76399994     1.27400005     8.87600040
C          13.89700031     0.71700001     5.99800014
H          14.73900032     1.11099994     6.31099987
H          13.82100010     0.83800000     5.02799988
H          13.88500023    -0.23899999     6.21000004
C          12.69099998     2.89199996     6.46400023
H          11.88199997     3.25699997     6.87900019
H          12.68099976     3.08200002     5.50299978
H          13.48099995     3.30599999     6.86999989
C           9.34300041     1.41700006     9.12600040
H           9.59799957     1.66600001    10.00699997
C           7.97700024     1.31799996     8.96300030
C           7.11499977     1.55499995    10.07100010
H           7.50799990     1.85399997    10.88300037
C           5.75500011     1.37899995    10.04599953
H           5.32000017     1.09899998     9.24899960
C           5.01100016     1.62100005    11.22099972
H           5.49800014     1.95700002    11.96500015
C           2.82800007     0.95999998    10.33100033
H           2.10800004     0.40799999    10.72599983
H           3.33599997     0.39300001     9.69799995
C           2.21600008     2.13499999     9.58300018
H           1.64999998     2.65199995    10.19200039
H           1.67499995     1.80100000     8.83800030
H           2.93099999     2.70900011     9.23499966
C           3.12199998     1.69799995    12.72399998
H           2.19300008     2.01699996    12.60200024
H           3.63199997     2.41100001    13.18500042
C           3.11500001     0.45500001    13.57900047
H           2.60700011    -0.25000000    13.12600040
H           2.69899988     0.65499997    14.44299984
H           4.03499985     0.15300000    13.72299957
N           3.73000002     1.43400002    11.40200043
O           9.34700012     0.69499999     6.19999981
O          11.97500038     1.39100003    10.07299995
O          12.86200047     1.09500003     8.07800007
O          11.54300022     0.78299999     6.15799999
O           7.34499979     0.95300001     7.80299997
H           8.02741146     0.61888009     7.16109324
C          23.74600029    32.56100082    44.65499878
Cl         24.42200089    32.51699829    43.02000046
Cl         24.69300079    33.61700058    45.71400070
C          20.29000092    32.56100082    58.34500122
Cl         20.96599960    32.51699829    56.70999908
Cl         21.23699951    33.61700058    59.40299988
