57
Converted from {pdb}
   C   1115.165  9999.999    -2.608
   C      2.805    -0.492    -2.435
   C      2.883    -0.175    -1.042
   C      4.191    -0.125    -0.414
   C      6.324    -0.682    -3.292
   H      7.166    -0.288    -2.979
   H      6.248    -0.561    -4.262
   H      6.312    -1.638    -3.080
   C      5.118  -222.493    -2.826
   H      4.309     1.858    -2.411
   H      5.108     1.683    -3.787
   H      5.908     1.907    -2.420
   C      1.770     0.018    -0.164
   H      2.025     0.267     0.717
   C      0.404    -0.081    -0.327
   C     -0.458     0.156     0.781
   H     -0.065     0.455     1.593
   C     -1.818    -0.020     0.756
   H     -2.253    -0.300    -0.041
   C     -2.562     0.222     1.931
   H     -2.075     0.558     2.675
   C     -4.745    -0.439     1.041
   H     -5.465    -0.991     1.436
   H     -4.237    -1.006     0.408
   C     -5.357     0.736     0.293
   H     -5.923     1.253     0.902
   H     -5.898     0.402    -0.452
   H     -4.642     1.310    -0.055
   C     -4.451     0.299     3.434
   H     -5.380     0.618     3.312
   H     -3.941     1.012     3.895
   C     -4.458    -0.944     4.289
   H     -4.966    -1.649     3.836
   H     -4.874    -0.744     5.153
   H     -3.538    -1.246     4.433
   N     -3.843     0.035     2.112
   O      1.774    -0.704    -3.090
   O      4.402    -0.008     0.783
   O      5.289    -0.304    -1.212
   O      3.970    -0.616    -3.132
   O     -0.228    -0.446    -1.487
   H     -0.006    -0.833    -2.281
   H    -18.389   -26.654    20.445
   C    -17.936   -26.684    19.443
   Cl   -17.949   -28.440    18.911
   Cl   -18.943   -25.790    18.274
   Cl   -16.288   -26.072    19.650
   H     15.294    23.941    -0.815
   C     14.499    24.447    -1.383
   Cl    13.145    24.798    -0.196
   Cl    15.070    26.026    -1.986
   Cl    13.999    23.294    -2.629
   H    -21.689    -9.626    38.725
   C    -21.760    -8.576    38.405
   Cl   -20.824    -8.440    36.833
   Cl   -23.451    -8.151    38.029
   Cl   -21.010    -7.633    39.701
